$# LS-DYNA Keyword file created by LS-PrePost(R) V4.8.25 - 04Jan2022
$# Created on Mar-24-2022 (12:22:03)
*KEYWORD
*TITLE
$#                                                                         title
LS-DYNA keyword deck by LS-PrePost
*CONTROL_ACCURACY
$#     osu       inn    pidosu      iacc    
         1         4         0         0
*CONTROL_BULK_VISCOSITY
$#      q1        q2      type     btype    tstype      
       1.5      0.06        -2         0         0
*CONTROL_CONTACT
$#  slsfac    rwpnal    islchk    shlthk    penopt    thkchg     orien    enmass
       0.2       0.0         1         0         1         0         1         0
$#  usrstr    usrfrc     nsbcs    interm     xpene     ssthk      ecdt   tiedprj
         0         0         0         0       4.0         0         0         0
$#   sfric     dfric       edc       vfc        th     th_sf    pen_sf      
       0.0       0.0       0.0       0.0       0.0       0.0       0.0
$#  ignore    frceng   skiprwg    outseg   spotstp   spotdel   spothin       
         2         1         0         0         0         0       0.0
$#    isym    nserod    rwgaps    rwgdth     rwksf      icov    swradf    ithoff
         0         0         1       0.0       1.0         0       0.0         0
$#  shledg    pstiff    ithcnt    tdcnof     ftall    unused    shltrw    igactc
         0         0         0         0         0                 0.0         0
*CONTROL_DISCRETE_ELEMENT
$#   ndamp     tdamp     frics     fricr     normk    sheark       cap       vtk
       0.0       0.0       0.0       0.0      0.01       0.0         0         0
$#   gamma       vol       ang       gap    unused    ignore      nbuf  parallel

$#   lnorm    lshear    unused     fricd        dc      ncrb        bt        dt
         0         0                 0.0       0.0         0       0.01.00000E20
$#      cp        tc      tfac    
       0.0       0.0       0.0
$# idesoft    sofscl    unused     iskip     
         0       0.1                  20
*CONTROL_ENERGY
$#    hgen      rwen    slnten     rylen     irgen     
         2         1         2         2         1
*CONTROL_HOURGLASS
$#     ihq        qh  
         3       0.1
*CONTROL_OUTPUT
$#   npopt    neecho    nrefup    iaccop     opifs    ipnint    ikedit    iflush
         0         0         0         0       0.0         0       100      5000
$#   iprtf    ierode   tet10s8    msgmax    ipcurv      gmdt   ip1dblt      eocs
         0         1         2        50         0       0.0         0         0
$#   tolev    newleg    frfreq     minfo    solsig    msgflg    cdetol      
         2         0         1         0         0         0      10.0
$# phschng    demden   icrfile   spc2bnd    penout    shlsig   hisnout    engout
         0         0         0         0         0         0         0         0
$#    insf    isolsf      ibsf      issf    mlkbag      
         0         0         0         0         0
*CONTROL_SOLID
$#   esort   fmatrix   niptets    swlocl    psfail   t10jtol    icohed    tet13k
         1         0         4         1         0       0.0         0         0
$#   pm1     pm2     pm3     pm4     pm5     pm6     pm7     pm8     pm9    pm10
       0       0       0       0       0       0       0       0       0       0
*CONTROL_SOLUTION
$#    soln       nlq     isnan     lcint     lcacc     ncdcf     nocop     
         0         0         0       400         1         1         0
*CONTROL_TERMINATION
$#  endtim    endcyc     dtmin    endeng    endmas     nosol     
2.20000E-5         0       0.0       0.01.000000E8         0
*CONTROL_TIMESTEP
$#  dtinit    tssfac      isdo    tslimt     dt2ms      lctm     erode     ms1st
       0.0       0.1         0       0.0       0.0         0         0         0
$#  dt2msf   dt2mslc     imscl    unused    unused     rmscl    unused      ihdo
       0.0         0         0                           0.0                   0
*DATABASE_GLSTAT
$#      dt    binary      lcur     ioopt     
1.00000E-8         3         0         1
*DATABASE_GLSTAT_MASS_PROPERTIES
$#      dt    binary      lcur     ioopt     
1.00000E-8         0         0         1
*DATABASE_MATSUM
$#      dt    binary      lcur     ioopt     
1.00000E-8         0         0         1
*DATABASE_SLEOUT
$#      dt    binary      lcur     ioopt     
1.00000E-8         0         0         1
*DATABASE_BINARY_D3PLOT
$#      dt      lcdt      beam     npltc    psetid      
       0.0         0         0        30         0
$#   ioopt      rate    cutoff    window      type      pset    
         0       0.0       0.0       0.0         0         0
*DATABASE_EXTENT_BINARY
$#   neiph     neips    maxint    strflg    sigflg    epsflg    rltflg    engflg
        20        20         3         0         1         1         1         1
$#  cmpflg    ieverp    beamip     dcomp      shge     stssz    n3thdt   ialemat
         0         0         0         1         1         1         2         1
$# nintsld   pkp_sen      sclp     hydro     msscl     therm    intout    nodout
         0         0       1.0         2         0         0                    
$#    dtdt    resplt     neipb     quadr     cubic     
         0         0         0         0         0
*BOUNDARY_SPC_SET_ID
$#      id                                                               heading
         1FIX Z
$#    nsid       cid      dofx      dofy      dofz     dofrx     dofry     dofrz
         1         0         0         0         1         0         0         0
*SET_NODE_LIST
$#     sid       da1       da2       da3       da4    solver      
         1       0.0       0.0       0.0       0.0MECH
$#    nid1      nid2      nid3      nid4      nid5      nid6      nid7      nid8
     12077     12078     12079     12080     12081     12082     12083     12084
     12085     12086     12087     12088     12089     12090     12091     12092
     12093     12094     12095     12096     12097     12098     12099     12100
     12101     12102     12103     12104     12105     12106     12107     12108
     12109     12110     12111     12112     12113     12114     12115     12116
     12117     12118     12119     12120     12121     12122     12123     12124
     12125     12126     12127     12128     12129     12130     12131     12132
     12133     12134     12135     12136     12137     12138     12139     12140
     12141     12142     12143     12144     12145     12146     12147     12148
     12149     12150     12151     12152     12153     12154     12155     12156
     12157     12158     12159     12160     12161     12162     12163     12164
     12165     12166     12167     12168     12169     12170     12171     12172
     12173     12174     12175     12176     12177     12178     12179     12180
     12181     12182     12183     12184     12185     12186     12187     12188
     12189     12190     12191     12192     12193     12194     12195     12196
     12197     12198     12199     12200     12201     12202     12203     12204
     12205     12206     12207     12208     12209     12210     12211     12212
     12213     12214     12215     12216     12217     12218     12219     12220
     12221     12222     12223     12224     12225     12226     12227     12228
     12229     12230     12231     12232     12233     12234     12235     12236
$ ... 2242 like lines cut
*BOUNDARY_SPC_SET_ID
$#      id                                                               heading
         2FIX Y
$#    nsid       cid      dofx      dofy      dofz     dofrx     dofry     dofrz
         2         0         0         1         0         0         0         0
*SET_NODE_LIST
$#     sid       da1       da2       da3       da4    solver      
         2       0.0       0.0       0.0       0.0MECH
$#    nid1      nid2      nid3      nid4      nid5      nid6      nid7      nid8
         1         2         3         4         5         6         7         8
         9        10        11        12        13        14        15        16
        17        18        19        20        21        22        23        24
        25        26        27        28        29        30        31        32
        33        34        35        36        37        38        39        40
        41        42        43        44        45        46        47        48
        49        50        51        52        53        54        55        56
        57        58        59        60        61        62        63        64
        65        66        67        68        69        70        71        72
        73        74        75        76        77        78        79        80
        81        82        83        84        85        86        87        88
        89        90        91        92        93        94      6085      6086
      6128      6172      6214      6257      6297      6339      6379      6421
      6459      6499      6537      6577      6613      6651      6686      6723
      6765      6804      6837      6877      6916      6950      6981      7015
      7055      7110      7150      7186      7221      7251      7281      7320
      7354      7388      7425      7458      7494      7530      7566      7603
      7640      7681      7720      7756      7792      7827      7860      7893
      7928      7964      8000      8039      8073      8108      8142      8177
      8211      8246      8282      8316      8350      8385      8420      8456
$ ... 27 like lines cut
*CONTACT_ERODING_NODES_TO_SURFACE_ID
$#     cid                                                                 title
         3                                                                      
$#    ssid      msid     sstyp     mstyp    sboxid    mboxid       spr       mpr
        50        12         4         2         0         0         0         0
$#      fs        fd        dc        vc       vdc    penchk        bt        dt
      0.01      0.01       0.0       0.0       5.0         0       0.01.00000E20
$#     sfs       sfm       sst       mst      sfst      sfmt       fsf       vsf
       1.0       1.0       0.0       0.0       1.0       1.0       1.0       1.0
$#    isym    erosop      iadj    
         1         1         1
$#    soft    sofscl    lcidab    maxpar     sbopt     depth     bsort    frcfrq
         1       0.1         0     1.025       2.0         2         1         1
*SET_NODE_GENERAL_TITLE
Particles
$#     sid       da1       da2       da3       da4    solver      
        50       0.0       0.0       0.0       0.0MECH
$#  option        e1        e2        e3        e4        e5        e6        e7
PART              10        20         0         0         0         0         0
*SET_PART_LIST_TITLE
Parts
$#     sid       da1       da2       da3       da4    solver      
        12       0.0       0.0       0.0       0.0MECH
$#    pid1      pid2      pid3      pid4      pid5      pid6      pid7      pid8
         1         2         0         0         0         0         0         0
*CONTACT_ERODING_SINGLE_SURFACE
$#     cid                                                                 title
$#    ssid      msid     sstyp     mstyp    sboxid    mboxid       spr       mpr
         0         0         5         0         0         0         0         2
$#      fs        fd        dc        vc       vdc    penchk        bt        dt
      0.01      0.01       0.0       0.0       5.0         0       0.01.00000E20
$#     sfs       sfm       sst       mst      sfst      sfmt       fsf       vsf
       1.0       1.0       0.0       0.0       1.0       1.0       1.0       1.0
$#    isym    erosop      iadj    
         1         1         1
$#    soft    sofscl    lcidab    maxpar     sbopt     depth     bsort    frcfrq
         2       0.1         0     1.025       5.0        35         1         1
*PART
$#                                                                         title
Target
$#     pid     secid       mid     eosid      hgid      grav    adpopt      tmid
         1         1         2         2         0         0         0         0
*SECTION_SOLID_TITLE
Target and particles
$#   secid    elform       aet    unused    unused    unused    cohoff    unused
         1         1         0                                       0          
*MAT_USER_DEFINED_MATERIAL_MODELS_TITLE
AA6070-O
$#     mid        ro        mt       lmc       nhv    iortho     ibulk        ig
         22.70000E-9        47        48        20         0         1         2
$#   ivect     ifail    itherm    ihyper      ieos      lmca    unused    unused
         1         1         0         0         1         0                    
$        k         g         e        pr      beta       xsi    cp*rho     alpha
$#      p1        p2        p3        p4        p5        p6        p7        p8
  58333.33  26923.08   70000.0       0.3       0.0       0.9     2.4572.32000E-5
$    e0dot        tr        tm        t0
$#      p1        p2        p3        p4        p5        p6        p7        p8
1.00000E-4     293.0     893.0     293.0         0       0.0       0.0       0.0
$        a         b         n         c         m
$#      p1        p2        p3        p4        p5        p6        p7        p8
      38.8      3.63     0.213     0.142       1.0         0       0.0       0.0
$       q1        c1        q2        c2
$#      p1        p2        p3        p4        p5        p6        p7        p8
      79.5      56.9      88.2       4.0         0       0.0       0.0       0.0
$       dc        wc
$#      p1        p2        p3        p4        p5        p6        p7        p8
       1.0       151         0       0.0       0.0       0.0       0.0       0.0
$       tc      tauc       pco
$#      p1        p2        p3        p4        p5        p6        p7        p8
     804.01.00000E20     -1000         0       0.0       0.0       0.0       0.0
*EOS_LINEAR_POLYNOMIAL_TITLE
Linear
$#   eosid        c0        c1        c2        c3        c4        c5        c6
         2       0.0  58333.33       0.0       0.0       0.0       0.0       0.0
$#      e0        v0  
       0.0       1.0
*PART
$#                                                                         title
ball
$#     pid     secid       mid     eosid      hgid      grav    adpopt      tmid
         2         2         1         2         0         0         0         0
*SECTION_SOLID_TITLE
Ball
$#   secid    elform       aet    unused    unused    unused    cohoff    unused
         2         1         0                                       0          
*MAT_USER_DEFINED_MATERIAL_MODELS_TITLE
Aluminium
$#     mid        ro        mt       lmc       nhv    iortho     ibulk        ig
         12.70000E-9        47        48        20         0         1         2
$#   ivect     ifail    itherm    ihyper      ieos      lmca    unused    unused
         1         1         0         0         1         0                    
$        k         g         e        pr      beta       xsi    cp*rho     alpha
$#      p1        p2        p3        p4        p5        p6        p7        p8
  58333.33  26923.08   70000.0       0.3       0.0       0.9     2.4572.32000E-5
$    e0dot        tr        tm        t0
$#      p1        p2        p3        p4        p5        p6        p7        p8
1.00000E-4     293.0     893.0     293.0         0       0.0       0.0       0.0
$        a         b         n         c         m
$#      p1        p2        p3        p4        p5        p6        p7        p8
     292.6       0.0       0.0      0.02       1.0         0       0.0       0.0
$       q1        c1        q2        c2
$#      p1        p2        p3        p4        p5        p6        p7        p8
       2.7    2160.7     707.6      8.94         0       0.0       0.0       0.0
$       dc        wc
$#      p1        p2        p3        p4        p5        p6        p7        p8
       1.0     278.0         0       0.0       0.0       0.0       0.0       0.0
$       tc      tauc       pco
$#      p1        p2        p3        p4        p5        p6        p7        p8
     804.01.00000E20     -1000         0       0.0       0.0       0.0       0.0
*PART
$#                                                                         title
Particle Target
$#     pid     secid       mid     eosid      hgid      grav    adpopt      tmid
        10         1         2         2         0         0         0         0
*PART
$#                                                                         title
Particle Ball
$#     pid     secid       mid     eosid      hgid      grav    adpopt      tmid
        20         1         1         2         0         0         0         0
*INITIAL_VELOCITY_GENERATION
$#      id      styp     omega        vx        vy        vz     ivatn      icid
         2         2       0.0   6700000       0.0       0.0         0         0
$#      xc        yc        zc        nx        ny        nz     phase    irigid
       0.0       0.0       0.0       0.0       0.0       0.0         0         0
*DEFINE_ADAPTIVE_SOLID_TO_DES_ID
$#     did                                                               heading
         1                                                                      
$#    ipid     itype        nq     ipdes     isdes       rsf    outdes     ibond
         1         0         1        10         1       1.0         0         0
*DEFINE_ADAPTIVE_SOLID_TO_DES_ID
         2                                                                      
         2         0         1        20         2       1.0         0         0
*ELEMENT_SOLID
$#   eid     pid      n1      n2      n3      n4      n5      n6      n7      n8
    9879       1    5355    5356    5504    5503    5971    5972    5973    5974
    9880       1    5100    5101    5664    5663    5975    5976    5977    5978
    9881       1    4845    4846    5840    5841    5979    5980    5981    5982
    9882       1    3822    3826    4893    4892    5983    5984    5985    5986
    9883       1    4590    4591    5504    5505    5987    5988    5973    5989
    9884       1    4081    4080    5134    5133    5990    5991    5992    5993
    9885       1    3061    3060    4563    4562    5994    5995    5996    5997
    9886       1    2805    2806    4290    4291    5998    5999    6000    6001
    9887       1    2551    2550    3548    3547    6002    6003    6004    6005
    9888       1    2295    2296    3412    3413    6006    6007    6008    6009
    9889       1    2040    2041    4326    4325    6010    6011    6012    6013
    9890       1    1785    1786    4213    4214    6014    6015    6016    6017
    9891       1    1530    1531    3662    3661    6018    6019    6020    6021
    9892       1    1275    1276    3177    3176    6022    6023    6024    6025
    9893       1    1020    1021    3439    3440    6026    6027    6028    6029
    9894       1     765     766    4065    4066    6030    6031    6032    6033
    9895       1     510     511    2622    2623    6034    6035    6036    6037
    9896       1     255     256    2415    2414    6038    6039    6040    6041
    9897       1    4342    4344    4346    2854    6042    6043    6044    6045
    9898       1    5611    5612    5968    5929    6046    6047    6048    6049
$ ... 7902 like lines cut
*NODE
$#   nid               x               y               z      tc      rc  
       1            15.0            20.0             0.0       0       0
       2        14.83871            20.0             0.0       0       0
       3        14.67742            20.0             0.0       0       0
       4        14.51613            20.0             0.0       0       0
       5        14.35484            20.0             0.0       0       0
       6        14.19355            20.0             0.0       0       0
       7        14.03226            20.0             0.0       0       0
       8        13.87097            20.0             0.0       0       0
       9        13.70968            20.0             0.0       0       0
      10        13.54839            20.0             0.0       0       0
      11         13.3871            20.0             0.0       0       0
      12        13.22581            20.0             0.0       0       0
      13        13.06452            20.0             0.0       0       0
      14        12.90323            20.0             0.0       0       0
      15        12.74194            20.0             0.0       0       0
      16        12.58065            20.0             0.0       0       0
      17        12.41935            20.0             0.0       0       0
      18        12.25806            20.0             0.0       0       0
      19        12.09678            20.0             0.0       0       0
      20        11.93548            20.0             0.0       0       0
$ ... 18072 like lines cut
*SET_NODE_LIST
$#     sid       da1       da2       da3       da4    solver      
         3       0.0       0.0       0.0       0.0MECH
$#    nid1      nid2      nid3      nid4      nid5      nid6      nid7      nid8
     12077     12078     12079     12080     12081     12082     12083     12084
     12085     12086     12087     12088     12089     12090     12091     12092
     12093     12094     12095     12096     12097     12098     12099     12100
     12101     12102     12103     12104     12105     12106     12107     12108
     12109     12110     12111     12112     12113     12114     12115     12116
     12117     12118     12119     12120     12121     12122     12123     12124
     12125     12126     12127     12128     12129     12130     12131     12132
     12133     12134     12135     12136     12137     12138     12139     12140
     12141     12142     12143     12144     12145     12146     12147     12148
     12149     12150     12151     12152     12153     12154     12155     12156
     12157     12158     12159     12160     12161     12162     12163     12164
     12165     12166     12167     12168     12169     12170     12171     12172
     12173     12174     12175     12176     12177     12178     12179     12180
     12181     12182     12183     12184     12185     12186     12187     12188
     12189     12190     12191     12192     12193     12194     12195     12196
     12197     12198     12199     12200     12201     12202     12203     12204
     12205     12206     12207     12208     12209     12210     12211     12212
     12213     12214     12215     12216     12217     12218     12219     12220
     12221     12222     12223     12224     12225     12226     12227     12228
     12229     12230     12231     12232     12233     12234     12235     12236
$ ... 749 like lines cut
*END
