      Date: 04/08/2022      Time: 13:41:01  

     ___________________________________________________
     |                                                 |
     |  Livermore Software Technology, LLC             |
     |                                                 |
     |  7374 Las Positas Road                          |
     |  Livermore, CA 94551                            |
     |  Tel: (925) 449-2500  Fax: (925) 449-2507       |
     |  www.lstc.com                                   |
     |_________________________________________________|
     |                                                 |
     |  LS-DYNA, A Program for Nonlinear Dynamic       |
     |  Analysis of Structures in Three Dimensions     |
     |  Version : mpp d R12.0.0   Date: 06/19/2020     |
     |  Revision: 148931          Time: 17:26:40       |
     |                                                 |
     |  Features enabled in this version:              |
     |    Distributed Memory Parallel                  |
     |    CESE CHEMISTRY EM ICFD STOCHASTIC_PARTICLES  |
     |    FFTW (multi-dimensional FFTW Library)        |
     |    ANSYS License (ANSYS202)                     |
     |    BigID  option                                |
     |                                                 |
     |  Licensed to:                                   |
     |  Issued by  : Pascale.SaneGuttin_02092022       |
     |                                                 |
     |  Platform   : Intel-MPI 2018 Xeon64             |
     |  OS Level   : Linux CentOS 6.5 uom              |
     |  Compiler   : Intel Fortran Compiler 16.0 AVX-2 |
     |  Hostname   : compute-0-1                       |
     |  Precision  : Double precision (I8R8)           |
     |  SVN Version: 148978                            |
     |                                                 |
     |  Unauthorized use infringes LST copyrights      |
     |_________________________________________________|


 Input file: DynaOpt.key                                                                     

 The native file format       : 64-bit small endian

 LS-DYNA will perform a structural only analysis 

 allocating  memory to   100000000 d     1985258 hex ownership chunk
 contracting memory to           7 d     1991034 material sort chunk
 expanding   memory to          12 d     2056621 nodal force sharing lists 1
 expanding   memory to          18 d     2037289 mat scratch
 expanding   memory to          19 d     3108660 tied nodes scratch
 expanding   memory to          22 d     3108660 tied node scratch
 contracting memory to          18 d     3108660 nodal rigid body scratch
 expanding   memory to        1298 d     3108660 DES sld2des scratch
 expanding   memory to       19448 d     3108660 DES sld2des scratch
 contracting memory to        2450 d     3108660 DES sld2des scratch
 contracting memory to          18 d     3108660 spring/damper scratch
 contracting memory to           1 d     2098790 Performing Decomposition -- Phase 3
 LS-DYNA keyword deck by LS-PrePost                                      
                         ls-dyna mpp.148931 d           date 06/19/2020
 expanding   memory to        4305 d     2098790 material, node and element data
 expanding   memory to        4399 d     2098809 mat add general damage 0
 expanding   memory to        4459 d     2098809 material added airbag porosity leakage 
 expanding   memory to        4477 d     2098809 material properties
 expanding   memory to        4495 d     2138682 element data for composite material
 expanding   memory to        4510 d     2477105 gradient of damage data
 expanding   memory to       17622 d     2520434 user control for contact interfaces
 contracting memory to       17608 d     2520434 thermal expansion 0
 expanding   memory to       17614 d     2520434 state of charge expansion 0
 expanding   memory to       17616 d     2520434 cross-sectional force definitions 0
 expanding   memory to       27562 d     2520470 temp index array for node sorting
 contracting memory to       17616 d     2520470 just because?
 expanding   memory to       20504 d     2540380 arbitrary element numbering input
 contracting memory to       17636 d    27196096 spc cards
 contracting memory to       17623 d    27196096 d3thdt storage
 expanding   memory to       17624 d    27285360 process element material data
 expanding   memory to       19625 d    27285354 load curve data
 contracting memory to       17631 d    27285354 user_define_loading_set
 expanding   memory to       17831 d    27285354 regularize time history data
 contracting memory to       17635 d    27285354 *DEFINE_ELEMENT_DEATH
 expanding   memory to       17890 d    27266423 contact interfaces
 expanding   memory to       38782 d    27266423 implicit contact 1
 expanding   memory to       61822 d    27266423 implicit contact 2
 contracting memory to       18890 d    27534558 contact segment data 1
 expanding   memory to       71832 d    27785844 contact segment data 3
 expanding   memory to      164400 d    27658466 read contacts, eroding check
 expanding   memory to      253783 d    27658466 eroding neighbors 2
 expanding   memory to      274000 d    27658466 eroding neighbors
 contracting memory to      112266 d    28106176 contact definition
 expanding   memory to      112272 d    28255426 contact history
 expanding   memory to      112326 d    28337504 rigid body
 expanding   memory to      112344 d    28338118 rbe2 scratch
 contracting memory to      112330 d    28400726 contact friction
 expanding   memory to      112420 d    28400732 joints
 expanding   memory to      114480 d    28400732 de sld2des
 expanding   memory to      114520 d    28409396 discrete elements regions
 expanding   memory to      114620 d    28614044 rigid bodies for disp. termination
 
 *** Warning 40859 (SOL+859)
     Cannot find elements of slave segment of interface 2
 deleted segment ID          n1          n2          n3          n4
       1 310643 310643 310643 310643
       2 310644 310644 310644 310644
       3 310645 310645 310645 310645
       4 310651 310651 310651 310651
       5 310654 310654 310654 310654
       6 310656 310656 310656 310656
       7 310661 310661 310661 310661
       8 310663 310663 310663 310663
       9 310666 310666 310666 310666
       10 310668 310668 310668 310668
       11 310671 310671 310671 310671
       12 310685 310685 310685 310685
       13 310691 310691 310691 310691
       14 310694 310694 310694 310694
       15 310698 310698 310698 310698
       16 310701 310701 310701 310701
       17 310703 310703 310703 310703
       18 310706 310706 310706 310706
       19 310708 310708 310708 310708
       20 310711 310711 310711 310711
       21 310722 310722 310722 310722
       22 310726 310726 310726 310726
       23 310727 310727 310727 310727
       24 310728 310728 310728 310728
       25 310730 310730 310730 310730
       26 310731 310731 310731 310731
       27 310737 310737 310737 310737
       28 310740 310740 310740 310740
       29 310744 310744 310744 310744
       30 310746 310746 310746 310746
       31 310748 310748 310748 310748
       32 310751 310751 310751 310751
       33 310753 310753 310753 310753
       34 310756 310756 310756 310756
       35 310765 310765 310765 310765
       36 310767 310767 310767 310767
       37 310769 310769 310769 310769
       38 310770 310770 310770 310770
       39 310777 310777 310777 310777
       40 310780 310780 310780 310780
       41 310786 310786 310786 310786
       42 310787 310787 310787 310787
       43 310788 310788 310788 310788
       44 310791 310791 310791 310791
       45 310793 310793 310793 310793
       46 310796 310796 310796 310796
       47 310805 310805 310805 310805
       48 310806 310806 310806 310806
       49 310807 310807 310807 310807
       50 310817 310817 310817 310817
       51 310821 310821 310821 310821
       52 310824 310824 310824 310824
       53 310826 310826 310826 310826
       54 310829 310829 310829 310829
       55 310831 310831 310831 310831
       56 310834 310834 310834 310834
       57 310843 310843 310843 310843
       58 310844 310844 310844 310844
       59 310856 310856 310856 310856
       60 310860 310860 310860 310860
       61 310863 310863 310863 310863
       62 310865 310865 310865 310865
       63 310868 310868 310868 310868
       64 310870 310870 310870 310870
       65 310873 310873 310873 310873
       66 310882 310882 310882 310882
       67 310885 310885 310885 310885
       68 310896 310896 310896 310896
       69 310900 310900 310900 310900
       70 310903 310903 310903 310903
       71 310905 310905 310905 310905
       72 310908 310908 310908 310908
       73 310910 310910 310910 310910
       74 310913 310913 310913 310913
       75 310922 310922 310922 310922
       76 310924 310924 310924 310924
       77 310925 310925 310925 310925
       78 310936 310936 310936 310936
       79 310940 310940 310940 310940
       80 310943 310943 310943 310943
       81 310945 310945 310945 310945
       82 310948 310948 310948 310948
       83 310950 310950 310950 310950
       84 310952 310952 310952 310952
       85 310961 310961 310961 310961
       86 310963 310963 310963 310963
       87 310967 310967 310967 310967
       88 310976 310976 310976 310976
       89 310979 310979 310979 310979
       90 310982 310982 310982 310982
       91 310984 310984 310984 310984
       92 310987 310987 310987 310987
       93 310989 310989 310989 310989
       94 310992 310992 310992 310992
       95 311001 311001 311001 311001
       96 311003 311003 311003 311003
       97 311006 311006 311006 311006
       98 311014 311014 311014 311014
       99 311015 311015 311015 311015
       100 311018 311018 311018 311018
       101 311021 311021 311021 311021
       102 311023 311023 311023 311023
       103 311026 311026 311026 311026
       104 311028 311028 311028 311028
       105 311031 311031 311031 311031
       106 311040 311040 311040 311040
       107 311043 311043 311043 311043
       108 311054 311054 311054 311054
       109 311055 311055 311055 311055
       110 311057 311057 311057 311057
       111 311060 311060 311060 311060
       112 311062 311062 311062 311062
       113 311065 311065 311065 311065
       114 311067 311067 311067 311067
       115 311070 311070 311070 311070
       116 311078 311078 311078 311078
       117 311079 311079 311079 311079
       118 311091 311091 311091 311091
       119 311092 311092 311092 311092
       120 311095 311095 311095 311095
       121 311098 311098 311098 311098
       122 311100 311100 311100 311100
       123 311103 311103 311103 311103
       124 311105 311105 311105 311105
       125 311108 311108 311108 311108
       126 311110 311110 311110 311110
       127 311117 311117 311117 311117
       128 311118 311118 311118 311118
       129 311129 311129 311129 311129
       130 311130 311130 311130 311130
       131 311133 311133 311133 311133
       132 311136 311136 311136 311136
       133 311138 311138 311138 311138
       134 311141 311141 311141 311141
       135 311143 311143 311143 311143
       136 311146 311146 311146 311146
       137 311148 311148 311148 311148
       138 311155 311155 311155 311155
       139 311156 311156 311156 311156
       140 311157 311157 311157 311157
       141 311158 311158 311158 311158
       142 311167 311167 311167 311167
       143 311169 311169 311169 311169
       144 311173 311173 311173 311173
       145 311176 311176 311176 311176
       146 311178 311178 311178 311178
       147 311181 311181 311181 311181
       148 311183 311183 311183 311183
       149 311186 311186 311186 311186
       150 311188 311188 311188 311188
       151 311195 311195 311195 311195
       152 311197 311197 311197 311197
       153 311198 311198 311198 311198
       154 311199 311199 311199 311199
       155 311200 311200 311200 311200
       156 311212 311212 311212 311212
       157 311213 311213 311213 311213
       158 311216 311216 311216 311216
       159 311219 311219 311219 311219
       160 311221 311221 311221 311221
       161 311224 311224 311224 311224
       162 311226 311226 311226 311226
       163 311229 311229 311229 311229
       164 311231 311231 311231 311231
       165 311238 311238 311238 311238
       166 311239 311239 311239 311239
       167 311240 311240 311240 311240
       168 311242 311242 311242 311242
       169 311251 311251 311251 311251
       170 311252 311252 311252 311252
       171 311253 311253 311253 311253
       172 311256 311256 311256 311256
       173 311259 311259 311259 311259
       174 311261 311261 311261 311261
       175 311264 311264 311264 311264
       176 311266 311266 311266 311266
       177 311269 311269 311269 311269
       178 311271 311271 311271 311271
       179 311278 311278 311278 311278
       180 311291 311291 311291 311291
       181 311292 311292 311292 311292
       182 311293 311293 311293 311293
       183 311296 311296 311296 311296
       184 311299 311299 311299 311299
       185 311303 311303 311303 311303
       186 311305 311305 311305 311305
       187 311308 311308 311308 311308
       188 311310 311310 311310 311310
       189 311317 311317 311317 311317
       190 311331 311331 311331 311331
       191 311332 311332 311332 311332
       192 311333 311333 311333 311333
       193 311336 311336 311336 311336
       194 311339 311339 311339 311339
       195 311344 311344 311344 311344
       196 311346 311346 311346 311346
       197 311349 311349 311349 311349
       198 311351 311351 311351 311351
       199 311358 311358 311358 311358
       200 311361 311361 311361 311361
       201 311371 311371 311371 311371
       202 311372 311372 311372 311372
       203 311373 311373 311373 311373
       204 311376 311376 311376 311376
       205 311379 311379 311379 311379
       206 311384 311384 311384 311384
       207 311386 311386 311386 311386
       208 311389 311389 311389 311389
       209 311391 311391 311391 311391
       210 311398 311398 311398 311398
       211 311399 311399 311399 311399
       212 311400 311400 311400 311400
       213 311401 311401 311401 311401
       214 311406 311406 311406 311406
       215 311411 311411 311411 311411
       216 311412 311412 311412 311412
       217 311416 311416 311416 311416
       218 311419 311419 311419 311419
       219 311424 311424 311424 311424
       220 311426 311426 311426 311426
       221 311429 311429 311429 311429
       222 311431 311431 311431 311431
       223 311438 311438 311438 311438
       224 311439 311439 311439 311439
       225 311441 311441 311441 311441
       226 311443 311443 311443 311443
       227 311447 311447 311447 311447
       228 311452 311452 311452 311452
       229 311453 311453 311453 311453
       230 311456 311456 311456 311456
       231 311463 311463 311463 311463
       232 311465 311465 311465 311465
       233 311468 311468 311468 311468
       234 311470 311470 311470 311470
       235 311477 311477 311477 311477
       236 311480 311480 311480 311480
       237 311483 311483 311483 311483
       238 311484 311484 311484 311484
       239 311490 311490 311490 311490
       240 311492 311492 311492 311492
       241 311495 311495 311495 311495
       242 311498 311498 311498 311498
       243 311503 311503 311503 311503
       244 311507 311507 311507 311507
       245 311509 311509 311509 311509
       246 311516 311516 311516 311516
       247 311520 311520 311520 311520
       248 311523 311523 311523 311523
       249 311524 311524 311524 311524
       250 311529 311529 311529 311529
       251 311530 311530 311530 311530
       252 311535 311535 311535 311535
       253 311538 311538 311538 311538
       254 311543 311543 311543 311543
       255 311548 311548 311548 311548
       256 311550 311550 311550 311550
       257 311557 311557 311557 311557
       258 311561 311561 311561 311561
       259 311563 311563 311563 311563
       260 311565 311565 311565 311565
       261 311566 311566 311566 311566
       262 311572 311572 311572 311572
       263 311574 311574 311574 311574
       264 311580 311580 311580 311580
       265 311581 311581 311581 311581
       266 311585 311585 311585 311585
       267 311590 311590 311590 311590
       268 311592 311592 311592 311592
       269 311599 311599 311599 311599
       270 311600 311600 311600 311600
       271 311603 311603 311603 311603
       272 311605 311605 311605 311605
       273 311606 311606 311606 311606
       274 311611 311611 311611 311611
       275 311613 311613 311613 311613
       276 311616 311616 311616 311616
       277 311619 311619 311619 311619
       278 311624 311624 311624 311624
       279 311629 311629 311629 311629
       280 311631 311631 311631 311631
       281 311638 311638 311638 311638
       282 311640 311640 311640 311640
       283 311642 311642 311642 311642
       284 311644 311644 311644 311644
       285 311645 311645 311645 311645
       286 311650 311650 311650 311650
       287 311651 311651 311651 311651
       288 311656 311656 311656 311656
       289 311659 311659 311659 311659
       290 311664 311664 311664 311664
       291 311669 311669 311669 311669
       292 311671 311671 311671 311671
       293 311678 311678 311678 311678
       294 311679 311679 311679 311679
       295 311681 311681 311681 311681
       296 311683 311683 311683 311683
       297 311684 311684 311684 311684
       298 311690 311690 311690 311690
       299 311692 311692 311692 311692
       300 311695 311695 311695 311695
       301 311698 311698 311698 311698
       302 311703 311703 311703 311703
       303 311708 311708 311708 311708
       304 311710 311710 311710 311710
       305 311717 311717 311717 311717
       306 311721 311721 311721 311721
       307 311722 311722 311722 311722
       308 311724 311724 311724 311724
       309 311730 311730 311730 311730
       310 311732 311732 311732 311732
       311 311735 311735 311735 311735
       312 311737 311737 311737 311737
       313 311738 311738 311738 311738
       314 311743 311743 311743 311743
       315 311748 311748 311748 311748
       316 311750 311750 311750 311750
       317 311757 311757 311757 311757
       318 311759 311759 311759 311759
       319 311761 311761 311761 311761
       320 311764 311764 311764 311764
       321 311765 311765 311765 311765
       322 311771 311771 311771 311771
       323 311773 311773 311773 311773
       324 311776 311776 311776 311776
       325 311778 311778 311778 311778
       326 311779 311779 311779 311779
       327 311783 311783 311783 311783
       328 311788 311788 311788 311788
       329 311790 311790 311790 311790
       330 311797 311797 311797 311797
       331 311798 311798 311798 311798
       332 311800 311800 311800 311800
       333 311803 311803 311803 311803
       334 311804 311804 311804 311804
       335 311811 311811 311811 311811
       336 311814 311814 311814 311814
       337 311817 311817 311817 311817
       338 311818 311818 311818 311818
       339 311822 311822 311822 311822
       340 311827 311827 311827 311827
       341 311829 311829 311829 311829
       342 311836 311836 311836 311836
       343 311838 311838 311838 311838
       344 311840 311840 311840 311840
       345 311841 311841 311841 311841
       346 311845 311845 311845 311845
       347 311849 311849 311849 311849
       348 311854 311854 311854 311854
       349 311859 311859 311859 311859
       350 311864 311864 311864 311864
       351 311866 311866 311866 311866
       352 311873 311873 311873 311873
       353 311875 311875 311875 311875
       354 311877 311877 311877 311877
       355 311878 311878 311878 311878
       356 311881 311881 311881 311881
       357 311886 311886 311886 311886
       358 311889 311889 311889 311889
       359 311891 311891 311891 311891
       360 311892 311892 311892 311892
       361 311897 311897 311897 311897
       362 311902 311902 311902 311902
       363 311904 311904 311904 311904
       364 311911 311911 311911 311911
       365 311916 311916 311916 311916
       366 311917 311917 311917 311917
       367 311925 311925 311925 311925
       368 311928 311928 311928 311928
       369 311930 311930 311930 311930
       370 311931 311931 311931 311931
       371 311936 311936 311936 311936
       372 311941 311941 311941 311941
       373 311943 311943 311943 311943
       374 311950 311950 311950 311950
       375 311951 311951 311951 311951
       376 311953 311953 311953 311953
       377 311954 311954 311954 311954
       378 311962 311962 311962 311962
       379 311965 311965 311965 311965
       380 311967 311967 311967 311967
       381 311968 311968 311968 311968
       382 311973 311973 311973 311973
       383 311978 311978 311978 311978
       384 311980 311980 311980 311980
       385 311984 311984 311984 311984
       386 311987 311987 311987 311987
       387 311988 311988 311988 311988
       388 311989 311989 311989 311989
       389 311991 311991 311991 311991
       390 311992 311992 311992 311992
       391 311999 311999 311999 311999
       392 312002 312002 312002 312002
       393 312004 312004 312004 312004
       394 312005 312005 312005 312005
       395 312010 312010 312010 312010
       396 312015 312015 312015 312015
       397 312017 312017 312017 312017
       398 312021 312021 312021 312021
       399 312024 312024 312024 312024
       400 312026 312026 312026 312026
       401 312028 312028 312028 312028
       402 312029 312029 312029 312029
       403 312037 312037 312037 312037
       404 312042 312042 312042 312042
       405 312043 312043 312043 312043
       406 312044 312044 312044 312044
       407 312048 312048 312048 312048
       408 312053 312053 312053 312053
       409 312055 312055 312055 312055
       410 312059 312059 312059 312059
       411 312062 312062 312062 312062
       412 312064 312064 312064 312064
       413 312066 312066 312066 312066
       414 312067 312067 312067 312067
       415 312075 312075 312075 312075
       416 312079 312079 312079 312079
       417 312080 312080 312080 312080
       418 312085 312085 312085 312085
       419 312090 312090 312090 312090
       420 312092 312092 312092 312092
       421 312096 312096 312096 312096
       422 312099 312099 312099 312099
       423 312102 312102 312102 312102
       424 312103 312103 312103 312103
       425 312111 312111 312111 312111
       426 312116 312116 312116 312116
       427 312117 312117 312117 312117
       428 312122 312122 312122 312122
       429 312127 312127 312127 312127
       430 312129 312129 312129 312129
       431 312133 312133 312133 312133
       432 312136 312136 312136 312136
       433 312140 312140 312140 312140
       434 312141 312141 312141 312141
       435 312148 312148 312148 312148
       436 312153 312153 312153 312153
       437 312154 312154 312154 312154
       438 312159 312159 312159 312159
       439 312164 312164 312164 312164
       440 312166 312166 312166 312166
       441 312170 312170 312170 312170
       442 312173 312173 312173 312173
       443 312176 312176 312176 312176
       444 312177 312177 312177 312177
       445 312184 312184 312184 312184
       446 312189 312189 312189 312189
       447 312190 312190 312190 312190
       448 312195 312195 312195 312195
       449 312200 312200 312200 312200
       450 312202 312202 312202 312202
       451 312206 312206 312206 312206
       452 312209 312209 312209 312209
       453 312211 312211 312211 312211
       454 312212 312212 312212 312212
       455 312220 312220 312220 312220
       456 312225 312225 312225 312225
       457 312226 312226 312226 312226
       458 312231 312231 312231 312231
       459 312236 312236 312236 312236
       460 312238 312238 312238 312238
       461 312242 312242 312242 312242
       462 312245 312245 312245 312245
       463 312247 312247 312247 312247
       464 312248 312248 312248 312248
       465 312256 312256 312256 312256
       466 312260 312260 312260 312260
       467 312261 312261 312261 312261
       468 312265 312265 312265 312265
       469 312269 312269 312269 312269
       470 312270 312270 312270 312270
       471 312272 312272 312272 312272
       472 312276 312276 312276 312276
       473 312279 312279 312279 312279
       474 312281 312281 312281 312281
       475 312282 312282 312282 312282
       476 312283 312283 312283 312283
       477 312290 312290 312290 312290
       478 312294 312294 312294 312294
       479 312295 312295 312295 312295
       480 312300 312300 312300 312300
       481 312304 312304 312304 312304
       482 312305 312305 312305 312305
       483 312307 312307 312307 312307
       484 312311 312311 312311 312311
       485 312314 312314 312314 312314
       486 312316 312316 312316 312316
       487 312317 312317 312317 312317
       488 312325 312325 312325 312325
       489 312326 312326 312326 312326
       490 312330 312330 312330 312330
       491 312331 312331 312331 312331
       492 312336 312336 312336 312336
       493 312340 312340 312340 312340
       494 312341 312341 312341 312341
       495 312343 312343 312343 312343
       496 312347 312347 312347 312347
       497 312350 312350 312350 312350
       498 312351 312351 312351 312351
       499 312353 312353 312353 312353
       500 312354 312354 312354 312354
       501 312362 312362 312362 312362
       502 312363 312363 312363 312363
       503 312367 312367 312367 312367
       504 312368 312368 312368 312368
       505 312373 312373 312373 312373
       506 312377 312377 312377 312377
       507 312378 312378 312378 312378
       508 312380 312380 312380 312380
       509 312384 312384 312384 312384
       510 312387 312387 312387 312387
       511 312389 312389 312389 312389
       512 312390 312390 312390 312390
       513 312398 312398 312398 312398
       514 312399 312399 312399 312399
       515 312404 312404 312404 312404
       516 312405 312405 312405 312405
       517 312409 312409 312409 312409
       518 312413 312413 312413 312413
       519 312414 312414 312414 312414
       520 312416 312416 312416 312416
       521 312420 312420 312420 312420
       522 312423 312423 312423 312423
       523 312424 312424 312424 312424
       524 312425 312425 312425 312425
       525 312432 312432 312432 312432
       526 312434 312434 312434 312434
       527 312438 312438 312438 312438
       528 312439 312439 312439 312439
       529 312444 312444 312444 312444
       530 312448 312448 312448 312448
       531 312449 312449 312449 312449
       532 312451 312451 312451 312451
       533 312455 312455 312455 312455
       534 312458 312458 312458 312458
       535 312462 312462 312462 312462
       536 312463 312463 312463 312463
       537 312469 312469 312469 312469
       538 312470 312470 312470 312470
       539 312474 312474 312474 312474
       540 312475 312475 312475 312475
       541 312480 312480 312480 312480
       542 312484 312484 312484 312484
       543 312485 312485 312485 312485
       544 312487 312487 312487 312487
       545 312491 312491 312491 312491
       546 312494 312494 312494 312494
       547 312496 312496 312496 312496
       548 312498 312498 312498 312498
       549 312499 312499 312499 312499
       550 312506 312506 312506 312506
       551 312507 312507 312507 312507
       552 312511 312511 312511 312511
       553 312512 312512 312512 312512
       554 312517 312517 312517 312517
       555 312521 312521 312521 312521
       556 312522 312522 312522 312522
       557 312524 312524 312524 312524
       558 312528 312528 312528 312528
       559 312531 312531 312531 312531
       560 312533 312533 312533 312533
       561 312535 312535 312535 312535
       562 312536 312536 312536 312536
       563 312541 312541 312541 312541
       564 312544 312544 312544 312544
       565 312545 312545 312545 312545
       566 312550 312550 312550 312550
       567 312551 312551 312551 312551
       568 312554 312554 312554 312554
       569 312558 312558 312558 312558
       570 312559 312559 312559 312559
       571 312561 312561 312561 312561
       572 312565 312565 312565 312565
       573 312568 312568 312568 312568
       574 312570 312570 312570 312570
       575 312572 312572 312572 312572
       576 312573 312573 312573 312573
       577 312578 312578 312578 312578
       578 312581 312581 312581 312581
       579 312582 312582 312582 312582
       580 312586 312586 312586 312586
       581 312587 312587 312587 312587
       582 312592 312592 312592 312592
       583 312596 312596 312596 312596
       584 312597 312597 312597 312597
       585 312599 312599 312599 312599
       586 312603 312603 312603 312603
       587 312606 312606 312606 312606
       588 312607 312607 312607 312607
       589 312608 312608 312608 312608
       590 312611 312611 312611 312611
       591 312612 312612 312612 312612
       592 312616 312616 312616 312616
       593 312619 312619 312619 312619
       594 312620 312620 312620 312620
       595 312624 312624 312624 312624
       596 312625 312625 312625 312625
       597 312630 312630 312630 312630
       598 312634 312634 312634 312634
       599 312635 312635 312635 312635
       600 312637 312637 312637 312637
       601 312641 312641 312641 312641
       602 312644 312644 312644 312644
       603 312646 312646 312646 312646
       604 312647 312647 312647 312647
       605 312650 312650 312650 312650
       606 312652 312652 312652 312652
       607 312655 312655 312655 312655
       608 312656 312656 312656 312656
       609 312660 312660 312660 312660
       610 312661 312661 312661 312661
       611 312666 312666 312666 312666
       612 312670 312670 312670 312670
       613 312671 312671 312671 312671
       614 312673 312673 312673 312673
       615 312677 312677 312677 312677
       616 312679 312679 312679 312679
       617 312682 312682 312682 312682
       618 312683 312683 312683 312683
       619 312685 312685 312685 312685
       620 312686 312686 312686 312686
       621 312691 312691 312691 312691
       622 312692 312692 312692 312692
       623 312696 312696 312696 312696
       624 312697 312697 312697 312697
       625 312702 312702 312702 312702
       626 312706 312706 312706 312706
       627 312707 312707 312707 312707
       628 312709 312709 312709 312709
       629 312713 312713 312713 312713
       630 312715 312715 312715 312715
       631 312716 312716 312716 312716
       632 312717 312717 312717 312717
       633 312719 312719 312719 312719
       634 312722 312722 312722 312722
       635 312725 312725 312725 312725
       636 312726 312726 312726 312726
       637 312730 312730 312730 312730
       638 312731 312731 312731 312731
       639 312736 312736 312736 312736
       640 312740 312740 312740 312740
       641 312741 312741 312741 312741
       642 312743 312743 312743 312743
       643 312747 312747 312747 312747
       644 312749 312749 312749 312749
       645 312750 312750 312750 312750
       646 312752 312752 312752 312752
       647 312755 312755 312755 312755
       648 312758 312758 312758 312758
       649 312759 312759 312759 312759
       650 312763 312763 312763 312763
       651 312764 312764 312764 312764
       652 312769 312769 312769 312769
       653 312773 312773 312773 312773
       654 312774 312774 312774 312774
       655 312776 312776 312776 312776
       656 312780 312780 312780 312780
       657 312782 312782 312782 312782
       658 312783 312783 312783 312783
       659 312784 312784 312784 312784
       660 312786 312786 312786 312786
       661 312789 312789 312789 312789
       662 312792 312792 312792 312792
       663 312793 312793 312793 312793
       664 312797 312797 312797 312797
       665 312798 312798 312798 312798
       666 312803 312803 312803 312803
       667 312807 312807 312807 312807
       668 312808 312808 312808 312808
       669 312810 312810 312810 312810
       670 312814 312814 312814 312814
       671 312817 312817 312817 312817
       672 312819 312819 312819 312819
       673 312820 312820 312820 312820
       674 312822 312822 312822 312822
       675 312825 312825 312825 312825
       676 312828 312828 312828 312828
       677 312829 312829 312829 312829
       678 312833 312833 312833 312833
       679 312834 312834 312834 312834
       680 312838 312838 312838 312838
       681 312839 312839 312839 312839
       682 312843 312843 312843 312843
       683 312844 312844 312844 312844
       684 312846 312846 312846 312846
       685 312850 312850 312850 312850
       686 312853 312853 312853 312853
       687 312855 312855 312855 312855
       688 312856 312856 312856 312856
       689 312857 312857 312857 312857
       690 312858 312858 312858 312858
       691 312859 312859 312859 312859
       692 312865 312865 312865 312865
       693 312868 312868 312868 312868
       694 312869 312869 312869 312869
       695 312873 312873 312873 312873
       696 312874 312874 312874 312874
       697 312878 312878 312878 312878
       698 312879 312879 312879 312879
       699 312881 312881 312881 312881
       700 312885 312885 312885 312885
       701 312888 312888 312888 312888
       702 312889 312889 312889 312889
       703 312893 312893 312893 312893
       704 312894 312894 312894 312894
       705 312896 312896 312896 312896
       706 312899 312899 312899 312899
       707 312902 312902 312902 312902
       708 312903 312903 312903 312903
       709 312906 312906 312906 312906
       710 312907 312907 312907 312907
       711 312908 312908 312908 312908
       712 312911 312911 312911 312911
       713 312912 312912 312912 312912
       714 312916 312916 312916 312916
       715 312917 312917 312917 312917
       716 312919 312919 312919 312919
       717 312923 312923 312923 312923
       718 312926 312926 312926 312926
       719 312929 312929 312929 312929
       720 312930 312930 312930 312930
       721 312932 312932 312932 312932
       722 312935 312935 312935 312935
       723 312938 312938 312938 312938
       724 312939 312939 312939 312939
       725 312941 312941 312941 312941
       726 312943 312943 312943 312943
       727 312944 312944 312944 312944
       728 312947 312947 312947 312947
       729 312948 312948 312948 312948
       730 312952 312952 312952 312952
       731 312953 312953 312953 312953
       732 312955 312955 312955 312955
       733 312959 312959 312959 312959
       734 312962 312962 312962 312962
       735 312963 312963 312963 312963
       736 312964 312964 312964 312964
       737 312965 312965 312965 312965
       738 312967 312967 312967 312967
       739 312970 312970 312970 312970
       740 312973 312973 312973 312973
       741 312974 312974 312974 312974
       742 312977 312977 312977 312977
       743 312978 312978 312978 312978
       744 312979 312979 312979 312979
       745 312983 312983 312983 312983
       746 312984 312984 312984 312984
       747 312988 312988 312988 312988
       748 312989 312989 312989 312989
       749 312991 312991 312991 312991
       750 312995 312995 312995 312995
       751 312998 312998 312998 312998
       752 313000 313000 313000 313000
       753 313001 313001 313001 313001
       754 313002 313002 313002 313002
       755 313005 313005 313005 313005
       756 313007 313007 313007 313007
       757 313010 313010 313010 313010
       758 313011 313011 313011 313011
       759 313012 313012 313012 313012
       760 313014 313014 313014 313014
       761 313015 313015 313015 313015
       762 313019 313019 313019 313019
       763 313020 313020 313020 313020
       764 313024 313024 313024 313024
       765 313025 313025 313025 313025
       766 313027 313027 313027 313027
       767 313031 313031 313031 313031
       768 313034 313034 313034 313034
       769 313038 313038 313038 313038
       770 313039 313039 313039 313039
       771 313040 313040 313040 313040
       772 313043 313043 313043 313043
       773 313045 313045 313045 313045
       774 313048 313048 313048 313048
       775 313049 313049 313049 313049
       776 313050 313050 313050 313050
       777 313052 313052 313052 313052
       778 313054 313054 313054 313054
       779 313055 313055 313055 313055
       780 313058 313058 313058 313058
       781 313059 313059 313059 313059
       782 313063 313063 313063 313063
       783 313064 313064 313064 313064
       784 313066 313066 313066 313066
       785 313070 313070 313070 313070
       786 313073 313073 313073 313073
       787 313074 313074 313074 313074
       788 313076 313076 313076 313076
       789 313077 313077 313077 313077
       790 313078 313078 313078 313078
       791 313081 313081 313081 313081
       792 313083 313083 313083 313083
       793 313086 313086 313086 313086
       794 313087 313087 313087 313087
       795 313088 313088 313088 313088
       796 313090 313090 313090 313090
       797 313091 313091 313091 313091
       798 313092 313092 313092 313092
       799 313096 313096 313096 313096
       800 313097 313097 313097 313097
       801 313101 313101 313101 313101
       802 313102 313102 313102 313102
       803 313104 313104 313104 313104
       804 313108 313108 313108 313108
       805 313111 313111 313111 313111
       806 313115 313115 313115 313115
       807 313116 313116 313116 313116
       808 313118 313118 313118 313118
       809 313120 313120 313120 313120
       810 313123 313123 313123 313123
       811 313124 313124 313124 313124
       812 313125 313125 313125 313125
       813 313127 313127 313127 313127
       814 313129 313129 313129 313129
       815 313130 313130 313130 313130
       816 313133 313133 313133 313133
       817 313134 313134 313134 313134
       818 313138 313138 313138 313138
       819 313139 313139 313139 313139
       820 313141 313141 313141 313141
       821 313145 313145 313145 313145
       822 313148 313148 313148 313148
       823 313149 313149 313149 313149
       824 313150 313150 313150 313150
       825 313153 313153 313153 313153
       826 313154 313154 313154 313154
       827 313157 313157 313157 313157
       828 313159 313159 313159 313159
       829 313161 313161 313161 313161
       830 313162 313162 313162 313162
       831 313163 313163 313163 313163
       832 313165 313165 313165 313165
       833 313166 313166 313166 313166
       834 313167 313167 313167 313167
       835 313171 313171 313171 313171
       836 313172 313172 313172 313172
       837 313176 313176 313176 313176
       838 313177 313177 313177 313177
       839 313179 313179 313179 313179
       840 313183 313183 313183 313183
       841 313186 313186 313186 313186
       842 313188 313188 313188 313188
       843 313189 313189 313189 313189
       844 313192 313192 313192 313192
       845 313194 313194 313194 313194
       846 313196 313196 313196 313196
       847 313197 313197 313197 313197
       848 313198 313198 313198 313198
       849 313200 313200 313200 313200
       850 313201 313201 313201 313201
       851 313202 313202 313202 313202
       852 313206 313206 313206 313206
       853 313207 313207 313207 313207
       854 313211 313211 313211 313211
       855 313212 313212 313212 313212
       856 313214 313214 313214 313214
       857 313218 313218 313218 313218
       858 313221 313221 313221 313221
       859 313225 313225 313225 313225
       860 313228 313228 313228 313228
       861 313230 313230 313230 313230
       862 313232 313232 313232 313232
       863 313233 313233 313233 313233
       864 313234 313234 313234 313234
       865 313235 313235 313235 313235
       866 313237 313237 313237 313237
       867 313238 313238 313238 313238
       868 313239 313239 313239 313239
       869 313243 313243 313243 313243
       870 313244 313244 313244 313244
       871 313248 313248 313248 313248
       872 313249 313249 313249 313249
       873 313251 313251 313251 313251
       874 313255 313255 313255 313255
       875 313258 313258 313258 313258
       876 313261 313261 313261 313261
       877 313262 313262 313262 313262
       878 313265 313265 313265 313265
       879 313267 313267 313267 313267
       880 313269 313269 313269 313269
       881 313270 313270 313270 313270
       882 313271 313271 313271 313271
       883 313272 313272 313272 313272
       884 313273 313273 313273 313273
       885 313274 313274 313274 313274
       886 313275 313275 313275 313275
       887 313279 313279 313279 313279
       888 313280 313280 313280 313280
       889 313284 313284 313284 313284
       890 313285 313285 313285 313285
       891 313287 313287 313287 313287
       892 313291 313291 313291 313291
       893 313294 313294 313294 313294
       894 313295 313295 313295 313295
       895 313296 313296 313296 313296
       896 313299 313299 313299 313299
       897 313301 313301 313301 313301
       898 313302 313302 313302 313302
       899 313304 313304 313304 313304
       900 313305 313305 313305 313305
       901 313306 313306 313306 313306
       902 313308 313308 313308 313308
       903 313309 313309 313309 313309
       904 313310 313310 313310 313310
       905 313314 313314 313314 313314
       906 313315 313315 313315 313315
       907 313319 313319 313319 313319
       908 313320 313320 313320 313320
       909 313322 313322 313322 313322
       910 313326 313326 313326 313326
       911 313329 313329 313329 313329
       912 313334 313334 313334 313334
       913 313335 313335 313335 313335
       914 313338 313338 313338 313338
       915 313340 313340 313340 313340
       916 313342 313342 313342 313342
       917 313343 313343 313343 313343
       918 313344 313344 313344 313344
       919 313345 313345 313345 313345
       920 313347 313347 313347 313347
       921 313348 313348 313348 313348
       922 313349 313349 313349 313349
       923 313353 313353 313353 313353
       924 313354 313354 313354 313354
       925 313358 313358 313358 313358
       926 313359 313359 313359 313359
       927 313361 313361 313361 313361
       928 313365 313365 313365 313365
       929 313368 313368 313368 313368
       930 313370 313370 313370 313370
       931 313371 313371 313371 313371
       932 313372 313372 313372 313372
       933 313375 313375 313375 313375
       934 313377 313377 313377 313377
       935 313379 313379 313379 313379
       936 313380 313380 313380 313380
       937 313381 313381 313381 313381
       938 313382 313382 313382 313382
       939 313384 313384 313384 313384
       940 313385 313385 313385 313385
       941 313386 313386 313386 313386
       942 313390 313390 313390 313390
       943 313391 313391 313391 313391
       944 313395 313395 313395 313395
       945 313396 313396 313396 313396
       946 313398 313398 313398 313398
       947 313401 313401 313401 313401
       948 313404 313404 313404 313404
       949 313407 313407 313407 313407
       950 313408 313408 313408 313408
       951 313411 313411 313411 313411
       952 313413 313413 313413 313413
       953 313414 313414 313414 313414
       954 313415 313415 313415 313415
       955 313416 313416 313416 313416
       956 313417 313417 313417 313417
       957 313419 313419 313419 313419
       958 313420 313420 313420 313420
       959 313421 313421 313421 313421
       960 313425 313425 313425 313425
       961 313426 313426 313426 313426
       962 313430 313430 313430 313430
       963 313431 313431 313431 313431
       964 313433 313433 313433 313433
       965 313437 313437 313437 313437
       966 313440 313440 313440 313440
       967 313443 313443 313443 313443
       968 313444 313444 313444 313444
       969 313447 313447 313447 313447
       970 313449 313449 313449 313449
       971 313451 313451 313451 313451
       972 313452 313452 313452 313452
       973 313453 313453 313453 313453
       974 313455 313455 313455 313455
       975 313456 313456 313456 313456
       976 313457 313457 313457 313457
       977 313461 313461 313461 313461
       978 313462 313462 313462 313462
       979 313466 313466 313466 313466
       980 313467 313467 313467 313467
       981 313469 313469 313469 313469
       982 313473 313473 313473 313473
       983 313476 313476 313476 313476
       984 313477 313477 313477 313477
       985 313479 313479 313479 313479
       986 313480 313480 313480 313480
       987 313481 313481 313481 313481
       988 313484 313484 313484 313484
       989 313486 313486 313486 313486
       990 313488 313488 313488 313488
       991 313489 313489 313489 313489
       992 313491 313491 313491 313491
       993 313492 313492 313492 313492
       994 313493 313493 313493 313493
       995 313494 313494 313494 313494
       996 313498 313498 313498 313498
       997 313499 313499 313499 313499
       998 313503 313503 313503 313503
       999 313504 313504 313504 313504
       1000 313506 313506 313506 313506
       1001 313510 313510 313510 313510
       1002 313513 313513 313513 313513
       1003 313516 313516 313516 313516
       1004 313517 313517 313517 313517
       1005 313519 313519 313519 313519
       1006 313520 313520 313520 313520
       1007 313521 313521 313521 313521
       1008 313523 313523 313523 313523
       1009 313525 313525 313525 313525
       1010 313529 313529 313529 313529
       1011 313530 313530 313530 313530
       1012 313531 313531 313531 313531
       1013 313532 313532 313532 313532
       1014 313533 313533 313533 313533
       1015 313534 313534 313534 313534
       1016 313538 313538 313538 313538
       1017 313539 313539 313539 313539
       1018 313543 313543 313543 313543
       1019 313544 313544 313544 313544
       1020 313546 313546 313546 313546
       1021 313550 313550 313550 313550
       1022 313553 313553 313553 313553
       1023 313556 313556 313556 313556
       1024 313557 313557 313557 313557
       1025 313560 313560 313560 313560
       1026 313562 313562 313562 313562
       1027 313564 313564 313564 313564
       1028 313566 313566 313566 313566
       1029 313567 313567 313567 313567
       1030 313568 313568 313568 313568
       1031 313569 313569 313569 313569
       1032 313570 313570 313570 313570
       1033 313571 313571 313571 313571
       1034 313575 313575 313575 313575
       1035 313576 313576 313576 313576
       1036 313580 313580 313580 313580
       1037 313581 313581 313581 313581
       1038 313583 313583 313583 313583
       1039 313587 313587 313587 313587
       1040 313590 313590 313590 313590
       1041 313591 313591 313591 313591
       1042 313592 313592 313592 313592
       1043 313595 313595 313595 313595
       1044 313597 313597 313597 313597
       1045 313599 313599 313599 313599
       1046 313601 313601 313601 313601
       1047 313602 313602 313602 313602
       1048 313603 313603 313603 313603
       1049 313604 313604 313604 313604
       1050 313605 313605 313605 313605
       1051 313606 313606 313606 313606
       1052 313610 313610 313610 313610
       1053 313611 313611 313611 313611
       1054 313615 313615 313615 313615
       1055 313616 313616 313616 313616
       1056 313618 313618 313618 313618
       1057 313622 313622 313622 313622
       1058 313625 313625 313625 313625
       1059 313626 313626 313626 313626
       1060 313629 313629 313629 313629
       1061 313630 313630 313630 313630
       1062 313633 313633 313633 313633
       1063 313635 313635 313635 313635
       1064 313637 313637 313637 313637
       1065 313639 313639 313639 313639
       1066 313640 313640 313640 313640
       1067 313641 313641 313641 313641
       1068 313643 313643 313643 313643
       1069 313644 313644 313644 313644
       1070 313647 313647 313647 313647
       1071 313648 313648 313648 313648
       1072 313652 313652 313652 313652
       1073 313653 313653 313653 313653
       1074 313655 313655 313655 313655
       1075 313659 313659 313659 313659
       1076 313662 313662 313662 313662
       1077 313663 313663 313663 313663
       1078 313665 313665 313665 313665
       1079 313666 313666 313666 313666
       1080 313667 313667 313667 313667
       1081 313670 313670 313670 313670
       1082 313672 313672 313672 313672
       1083 313674 313674 313674 313674
       1084 313675 313675 313675 313675
       1085 313677 313677 313677 313677
       1086 313678 313678 313678 313678
       1087 313679 313679 313679 313679
       1088 313680 313680 313680 313680
       1089 313681 313681 313681 313681
       1090 313684 313684 313684 313684
       1091 313685 313685 313685 313685
       1092 313689 313689 313689 313689
       1093 313690 313690 313690 313690
       1094 313692 313692 313692 313692
       1095 313696 313696 313696 313696
       1096 313699 313699 313699 313699
       1097 313700 313700 313700 313700
       1098 313701 313701 313701 313701
       1099 313702 313702 313702 313702
       1100 313705 313705 313705 313705
       1101 313707 313707 313707 313707
       1102 313710 313710 313710 313710
       1103 313711 313711 313711 313711
       1104 313712 313712 313712 313712
       1105 313713 313713 313713 313713
       1106 313714 313714 313714 313714
       1107 313716 313716 313716 313716
       1108 313717 313717 313717 313717
       1109 313719 313719 313719 313719
       1110 313720 313720 313720 313720
       1111 313724 313724 313724 313724
       1112 313725 313725 313725 313725
       1113 313727 313727 313727 313727
       1114 313731 313731 313731 313731
       1115 313734 313734 313734 313734
       1116 313735 313735 313735 313735
       1117 313736 313736 313736 313736
       1118 313737 313737 313737 313737
       1119 313739 313739 313739 313739
       1120 313740 313740 313740 313740
       1121 313743 313743 313743 313743
       1122 313745 313745 313745 313745
       1123 313747 313747 313747 313747
       1124 313748 313748 313748 313748
       1125 313750 313750 313750 313750
       1126 313751 313751 313751 313751
       1127 313752 313752 313752 313752
       1128 313753 313753 313753 313753
       1129 313754 313754 313754 313754
       1130 313758 313758 313758 313758
       1131 313759 313759 313759 313759
       1132 313763 313763 313763 313763
       1133 313764 313764 313764 313764
       1134 313766 313766 313766 313766
       1135 313770 313770 313770 313770
       1136 313773 313773 313773 313773
       1137 313774 313774 313774 313774
       1138 313775 313775 313775 313775
       1139 313778 313778 313778 313778
       1140 313781 313781 313781 313781
       1141 313783 313783 313783 313783
       1142 313785 313785 313785 313785
       1143 313786 313786 313786 313786
       1144 313788 313788 313788 313788
       1145 313789 313789 313789 313789
       1146 313790 313790 313790 313790
       1147 313791 313791 313791 313791
       1148 313792 313792 313792 313792
       1149 313795 313795 313795 313795
       1150 313796 313796 313796 313796
       1151 313800 313800 313800 313800
       1152 313801 313801 313801 313801
       1153 313803 313803 313803 313803
       1154 313807 313807 313807 313807
       1155 313810 313810 313810 313810
       1156 313811 313811 313811 313811
       1157 313812 313812 313812 313812
       1158 313814 313814 313814 313814
       1159 313817 313817 313817 313817
       1160 313819 313819 313819 313819
       1161 313821 313821 313821 313821
       1162 313822 313822 313822 313822
       1163 313824 313824 313824 313824
       1164 313825 313825 313825 313825
       1165 313826 313826 313826 313826
       1166 313827 313827 313827 313827
       1167 313828 313828 313828 313828
       1168 313831 313831 313831 313831
       1169 313832 313832 313832 313832
       1170 313837 313837 313837 313837
       1171 313839 313839 313839 313839
       1172 313843 313843 313843 313843
       1173 313846 313846 313846 313846
       1174 313849 313849 313849 313849
       1175 313850 313850 313850 313850
       1176 313852 313852 313852 313852
       1177 313854 313854 313854 313854
       1178 313856 313856 313856 313856
       1179 313858 313858 313858 313858
       1180 313859 313859 313859 313859
       1181 313861 313861 313861 313861
       1182 313862 313862 313862 313862
       1183 313863 313863 313863 313863
       1184 313864 313864 313864 313864
       1185 313868 313868 313868 313868
       1186 313869 313869 313869 313869
       1187 313874 313874 313874 313874
       1188 313876 313876 313876 313876
       1189 313880 313880 313880 313880
       1190 313883 313883 313883 313883
       1191 313885 313885 313885 313885
       1192 313889 313889 313889 313889
       1193 313892 313892 313892 313892
       1194 313893 313893 313893 313893
       1195 313895 313895 313895 313895
       1196 313896 313896 313896 313896
       1197 313898 313898 313898 313898
       1198 313899 313899 313899 313899
       1199 313900 313900 313900 313900
       1200 313902 313902 313902 313902
       1201 313904 313904 313904 313904
       1202 313906 313906 313906 313906
       1203 313907 313907 313907 313907
       1204 313912 313912 313912 313912
       1205 313914 313914 313914 313914
       1206 313918 313918 313918 313918
       1207 313921 313921 313921 313921
       1208 313922 313922 313922 313922
       1209 313925 313925 313925 313925
       1210 313928 313928 313928 313928
       1211 313930 313930 313930 313930
       1212 313932 313932 313932 313932
       1213 313933 313933 313933 313933
       1214 313935 313935 313935 313935
       1215 313936 313936 313936 313936
       1216 313937 313937 313937 313937
       1217 313938 313938 313938 313938
       1218 313942 313942 313942 313942
       1219 313943 313943 313943 313943
       1220 313948 313948 313948 313948
       1221 313950 313950 313950 313950
       1222 313954 313954 313954 313954
       1223 313957 313957 313957 313957
       1224 313960 313960 313960 313960
       1225 313962 313962 313962 313962
       1226 313965 313965 313965 313965
       1227 313966 313966 313966 313966
       1228 313967 313967 313967 313967
       1229 313968 313968 313968 313968
       1230 313970 313970 313970 313970
       1231 313971 313971 313971 313971
       1232 313972 313972 313972 313972
       1233 313974 313974 313974 313974
       1234 313978 313978 313978 313978
       1235 313979 313979 313979 313979
       1236 313985 313985 313985 313985
       1237 313989 313989 313989 313989
       1238 313992 313992 313992 313992
       1239 313995 313995 313995 313995
       1240 313997 313997 313997 313997
       1241 314000 314000 314000 314000
       1242 314004 314004 314004 314004
       1243 314007 314007 314007 314007
       1244 314008 314008 314008 314008
       1245 314009 314009 314009 314009
       1246 314011 314011 314011 314011
       1247 314015 314015 314015 314015
       1248 314016 314016 314016 314016
       1249 314023 314023 314023 314023
       1250 314026 314026 314026 314026
       1251 314029 314029 314029 314029
       1252 314034 314034 314034 314034
       1253 314036 314036 314036 314036
       1254 314039 314039 314039 314039
       1255 314043 314043 314043 314043
       1256 314046 314046 314046 314046
       1257 314047 314047 314047 314047
       1258 314048 314048 314048 314048
       1259 314050 314050 314050 314050
       1260 314054 314054 314054 314054
       1261 314055 314055 314055 314055
       1262 314062 314062 314062 314062
       1263 314066 314066 314066 314066
       1264 314069 314069 314069 314069
       1265 314075 314075 314075 314075
       1266 314078 314078 314078 314078
       1267 314082 314082 314082 314082
       1268 314085 314085 314085 314085
       1269 314087 314087 314087 314087
       1270 314089 314089 314089 314089
       1271 314091 314091 314091 314091
       1272 314093 314093 314093 314093
       1273 314094 314094 314094 314094
       1274 314100 314100 314100 314100
       1275 314104 314104 314104 314104
       1276 314107 314107 314107 314107
       1277 314111 314111 314111 314111
       1278 314115 314115 314115 314115
       1279 314118 314118 314118 314118
       1280 314121 314121 314121 314121
       1281 314122 314122 314122 314122
       1282 314123 314123 314123 314123
       1283 314125 314125 314125 314125
       1284 314129 314129 314129 314129
       1285 314130 314130 314130 314130
       1286 314137 314137 314137 314137
       1287 314141 314141 314141 314141
       1288 314144 314144 314144 314144
       1289 314145 314145 314145 314145
       1290 314149 314149 314149 314149
       1291 314152 314152 314152 314152
       1292 314156 314156 314156 314156
       1293 314159 314159 314159 314159
       1294 314160 314160 314160 314160
       1295 314161 314161 314161 314161
       1296 314163 314163 314163 314163
       1297 314167 314167 314167 314167
       1298 314168 314168 314168 314168
       1299 314175 314175 314175 314175
       1300 314179 314179 314179 314179
       1301 314182 314182 314182 314182
       1302 314183 314183 314183 314183
       1303 314184 314184 314184 314184
       1304 314186 314186 314186 314186
       1305 314190 314190 314190 314190
       1306 314193 314193 314193 314193
       1307 314196 314196 314196 314196
       1308 314197 314197 314197 314197
       1309 314198 314198 314198 314198
       1310 314200 314200 314200 314200
       1311 314204 314204 314204 314204
       1312 314205 314205 314205 314205
       1313 314212 314212 314212 314212
       1314 314216 314216 314216 314216
       1315 314219 314219 314219 314219
       1316 314221 314221 314221 314221
       1317 314223 314223 314223 314223
       1318 314226 314226 314226 314226
       1319 314230 314230 314230 314230
       1320 314233 314233 314233 314233
       1321 314234 314234 314234 314234
       1322 314235 314235 314235 314235
       1323 314241 314241 314241 314241
       1324 314242 314242 314242 314242
       1325 314249 314249 314249 314249
       1326 314253 314253 314253 314253
       1327 314256 314256 314256 314256
       1328 314259 314259 314259 314259
       1329 314262 314262 314262 314262
       1330 314264 314264 314264 314264
       1331 314268 314268 314268 314268
       1332 314271 314271 314271 314271
       1333 314273 314273 314273 314273
       1334 314277 314277 314277 314277
       1335 314279 314279 314279 314279
       1336 314280 314280 314280 314280
       1337 314287 314287 314287 314287
       1338 314291 314291 314291 314291
       1339 314294 314294 314294 314294
       1340 314296 314296 314296 314296
       1341 314299 314299 314299 314299
       1342 314303 314303 314303 314303
       1343 314306 314306 314306 314306
       1344 314309 314309 314309 314309
       1345 314310 314310 314310 314310
       1346 314311 314311 314311 314311
       1347 314317 314317 314317 314317
       1348 314318 314318 314318 314318
       1349 314325 314325 314325 314325
       1350 314329 314329 314329 314329
       1351 314332 314332 314332 314332
       1352 314334 314334 314334 314334
       1353 314336 314336 314336 314336
       1354 314337 314337 314337 314337
       1355 314339 314339 314339 314339
       1356 314342 314342 314342 314342
       1357 314346 314346 314346 314346
       1358 314349 314349 314349 314349
       1359 314350 314350 314350 314350
       1360 314351 314351 314351 314351
       1361 314357 314357 314357 314357
       1362 314358 314358 314358 314358
       1363 314365 314365 314365 314365
       1364 314369 314369 314369 314369
       1365 314372 314372 314372 314372
       1366 314374 314374 314374 314374
       1367 314375 314375 314375 314375
       1368 314377 314377 314377 314377
       1369 314379 314379 314379 314379
       1370 314383 314383 314383 314383
       1371 314386 314386 314386 314386
       1372 314387 314387 314387 314387
       1373 314388 314388 314388 314388
       1374 314394 314394 314394 314394
       1375 314395 314395 314395 314395
       1376 314402 314402 314402 314402
       1377 314406 314406 314406 314406
       1378 314409 314409 314409 314409
       1379 314411 314411 314411 314411
       1380 314412 314412 314412 314412
       1381 314416 314416 314416 314416
       1382 314420 314420 314420 314420
       1383 314423 314423 314423 314423
       1384 314426 314426 314426 314426
       1385 314427 314427 314427 314427
       1386 314428 314428 314428 314428
       1387 314434 314434 314434 314434
       1388 314435 314435 314435 314435
       1389 314442 314442 314442 314442
       1390 314446 314446 314446 314446
       1391 314449 314449 314449 314449
       1392 314451 314451 314451 314451
       1393 314454 314454 314454 314454
       1394 314457 314457 314457 314457
       1395 314461 314461 314461 314461
       1396 314464 314464 314464 314464
       1397 314465 314465 314465 314465
       1398 314466 314466 314466 314466
       1399 314472 314472 314472 314472
       1400 314473 314473 314473 314473
       1401 314480 314480 314480 314480
       1402 314484 314484 314484 314484
       1403 314487 314487 314487 314487
       1404 314488 314488 314488 314488
       1405 314489 314489 314489 314489
       1406 314490 314490 314490 314490
       1407 314491 314491 314491 314491
       1408 314492 314492 314492 314492
       1409 314494 314494 314494 314494
       1410 314497 314497 314497 314497
       1411 314501 314501 314501 314501
       1412 314504 314504 314504 314504
       1413 314505 314505 314505 314505
       1414 314506 314506 314506 314506
       1415 314512 314512 314512 314512
       1416 314513 314513 314513 314513
       1417 314520 314520 314520 314520
       1418 314524 314524 314524 314524
       1419 314527 314527 314527 314527
       1420 314529 314529 314529 314529
       1421 314532 314532 314532 314532
       1422 314535 314535 314535 314535
       1423 314539 314539 314539 314539
       1424 314542 314542 314542 314542
       1425 314543 314543 314543 314543
       1426 314544 314544 314544 314544
       1427 314550 314550 314550 314550
       1428 314551 314551 314551 314551
       1429 314558 314558 314558 314558
       1430 314564 314564 314564 314564
       1431 314565 314565 314565 314565
       1432 314567 314567 314567 314567
       1433 314568 314568 314568 314568
       1434 314569 314569 314569 314569
       1435 314571 314571 314571 314571
       1436 314574 314574 314574 314574
       1437 314578 314578 314578 314578
       1438 314581 314581 314581 314581
       1439 314582 314582 314582 314582
       1440 314583 314583 314583 314583
       1441 314589 314589 314589 314589
       1442 314590 314590 314590 314590
       1443 314597 314597 314597 314597
       1444 314603 314603 314603 314603
       1445 314604 314604 314604 314604
       1446 314605 314605 314605 314605
       1447 314607 314607 314607 314607
       1448 314610 314610 314610 314610
       1449 314614 314614 314614 314614
       1450 314617 314617 314617 314617
       1451 314618 314618 314618 314618
       1452 314619 314619 314619 314619
       1453 314625 314625 314625 314625
       1454 314626 314626 314626 314626
       1455 314633 314633 314633 314633
       1456 314639 314639 314639 314639
       1457 314640 314640 314640 314640
       1458 314642 314642 314642 314642
       1459 314645 314645 314645 314645
       1460 314649 314649 314649 314649
       1461 314652 314652 314652 314652
       1462 314653 314653 314653 314653
       1463 314654 314654 314654 314654
       1464 314660 314660 314660 314660
       1465 314661 314661 314661 314661
       1466 314668 314668 314668 314668
       1467 314671 314671 314671 314671
       1468 314674 314674 314674 314674
       1469 314680 314680 314680 314680
       1470 314682 314682 314682 314682
       1471 314685 314685 314685 314685
       1472 314689 314689 314689 314689
       1473 314691 314691 314691 314691
       1474 314693 314693 314693 314693
       1475 314697 314697 314697 314697
       1476 314699 314699 314699 314699
       1477 314700 314700 314700 314700
       1478 314707 314707 314707 314707
       1479 314711 314711 314711 314711
       1480 314714 314714 314714 314714
       1481 314715 314715 314715 314715
       1482 314716 314716 314716 314716
       1483 314718 314718 314718 314718
       1484 314720 314720 314720 314720
       1485 314723 314723 314723 314723
       1486 314727 314727 314727 314727
       1487 314730 314730 314730 314730
       1488 314731 314731 314731 314731
       1489 314732 314732 314732 314732
       1490 314738 314738 314738 314738
       1491 314739 314739 314739 314739
       1492 314746 314746 314746 314746
       1493 314750 314750 314750 314750
       1494 314753 314753 314753 314753
       1495 314756 314756 314756 314756
       1496 314760 314760 314760 314760
       1497 314762 314762 314762 314762
       1498 314765 314765 314765 314765
       1499 314769 314769 314769 314769
       1500 314772 314772 314772 314772
       1501 314773 314773 314773 314773
       1502 314774 314774 314774 314774
       1503 314780 314780 314780 314780
       1504 314781 314781 314781 314781
       1505 314788 314788 314788 314788
       1506 314792 314792 314792 314792
       1507 314795 314795 314795 314795
       1508 314796 314796 314796 314796
       1509 314797 314797 314797 314797
       1510 314799 314799 314799 314799
       1511 314802 314802 314802 314802
       1512 314805 314805 314805 314805
       1513 314809 314809 314809 314809
       1514 314812 314812 314812 314812
       1515 314813 314813 314813 314813
       1516 314814 314814 314814 314814
       1517 314820 314820 314820 314820
       1518 314821 314821 314821 314821
       1519 314828 314828 314828 314828
       1520 314831 314831 314831 314831
       1521 314832 314832 314832 314832
       1522 314835 314835 314835 314835
       1523 314837 314837 314837 314837
       1524 314841 314841 314841 314841
       1525 314842 314842 314842 314842
       1526 314845 314845 314845 314845
       1527 314849 314849 314849 314849
       1528 314852 314852 314852 314852
       1529 314853 314853 314853 314853
       1530 314854 314854 314854 314854
       1531 314860 314860 314860 314860
       1532 314861 314861 314861 314861
       1533 314868 314868 314868 314868
       1534 314871 314871 314871 314871
       1535 314872 314872 314872 314872
       1536 314875 314875 314875 314875
       1537 314879 314879 314879 314879
       1538 314884 314884 314884 314884
       1539 314887 314887 314887 314887
       1540 314891 314891 314891 314891
       1541 314894 314894 314894 314894
       1542 314896 314896 314896 314896
       1543 314900 314900 314900 314900
       1544 314902 314902 314902 314902
       1545 314903 314903 314903 314903
       1546 314910 314910 314910 314910
       1547 314913 314913 314913 314913
       1548 314914 314914 314914 314914
       1549 314917 314917 314917 314917
       1550 314921 314921 314921 314921
       1551 314926 314926 314926 314926
       1552 314929 314929 314929 314929
       1553 314933 314933 314933 314933
       1554 314936 314936 314936 314936
       1555 314937 314937 314937 314937
       1556 314938 314938 314938 314938
       1557 314944 314944 314944 314944
       1558 314945 314945 314945 314945
       1559 314952 314952 314952 314952
       1560 314955 314955 314955 314955
       1561 314956 314956 314956 314956
       1562 314959 314959 314959 314959
       1563 314961 314961 314961 314961
       1564 314966 314966 314966 314966
       1565 314968 314968 314968 314968
       1566 314972 314972 314972 314972
       1567 314975 314975 314975 314975
       1568 314976 314976 314976 314976
       1569 314977 314977 314977 314977
       1570 314983 314983 314983 314983
       1571 314984 314984 314984 314984
       1572 314990 314990 314990 314990
       1573 314993 314993 314993 314993
       1574 314994 314994 314994 314994
       1575 314997 314997 314997 314997
       1576 314999 314999 314999 314999
       1577 315000 315000 315000 315000
       1578 315006 315006 315006 315006
       1579 315009 315009 315009 315009
       1580 315013 315013 315013 315013
       1581 315016 315016 315016 315016
       1582 315017 315017 315017 315017
       1583 315018 315018 315018 315018
       1584 315025 315025 315025 315025
       1585 315028 315028 315028 315028
       1586 315032 315032 315032 315032
       1587 315035 315035 315035 315035
       1588 315036 315036 315036 315036
       1589 315039 315039 315039 315039
       1590 315044 315044 315044 315044
       1591 315048 315048 315048 315048
       1592 315051 315051 315051 315051
       1593 315055 315055 315055 315055
       1594 315057 315057 315057 315057
       1595 315058 315058 315058 315058
       1596 315059 315059 315059 315059
       1597 315066 315066 315066 315066
       1598 315069 315069 315069 315069
       1599 315073 315073 315073 315073
       1600 315076 315076 315076 315076
       1601 315077 315077 315077 315077
       1602 315080 315080 315080 315080
       1603 315087 315087 315087 315087
       1604 315088 315088 315088 315088
       1605 315089 315089 315089 315089
       1606 315090 315090 315090 315090
       1607 315094 315094 315094 315094
       1608 315097 315097 315097 315097
       1609 315098 315098 315098 315098
       1610 315106 315106 315106 315106
       1611 315109 315109 315109 315109
       1612 315113 315113 315113 315113
       1613 315116 315116 315116 315116
       1614 315117 315117 315117 315117
       1615 315120 315120 315120 315120
       1616 315124 315124 315124 315124
       1617 315126 315126 315126 315126
       1618 315128 315128 315128 315128
       1619 315129 315129 315129 315129
       1620 315132 315132 315132 315132
       1621 315134 315134 315134 315134
       1622 315136 315136 315136 315136
       1623 315143 315143 315143 315143
       1624 315146 315146 315146 315146
       1625 315150 315150 315150 315150
       1626 315153 315153 315153 315153
       1627 315154 315154 315154 315154
       1628 315157 315157 315157 315157
       1629 315158 315158 315158 315158
       1630 315159 315159 315159 315159
       1631 315160 315160 315160 315160
       1632 315162 315162 315162 315162
       1633 315165 315165 315165 315165
       1634 315166 315166 315166 315166
       1635 315170 315170 315170 315170
       1636 315173 315173 315173 315173
       1637 315174 315174 315174 315174
       1638 315182 315182 315182 315182
       1639 315185 315185 315185 315185
       1640 315189 315189 315189 315189
       1641 315192 315192 315192 315192
       1642 315193 315193 315193 315193
       1643 315196 315196 315196 315196
       1644 315197 315197 315197 315197
       1645 315200 315200 315200 315200
       1646 315203 315203 315203 315203
       1647 315204 315204 315204 315204
       1648 315208 315208 315208 315208
       1649 315212 315212 315212 315212
       1650 315213 315213 315213 315213
       1651 315220 315220 315220 315220
       1652 315223 315223 315223 315223
       1653 315227 315227 315227 315227
       1654 315230 315230 315230 315230
       1655 315231 315231 315231 315231
       1656 315234 315234 315234 315234
       1657 315235 315235 315235 315235
       1658 315236 315236 315236 315236
       1659 315242 315242 315242 315242
       1660 315243 315243 315243 315243
       1661 315246 315246 315246 315246
       1662 315249 315249 315249 315249
       1663 315250 315250 315250 315250
       1664 315258 315258 315258 315258
       1665 315261 315261 315261 315261
       1666 315265 315265 315265 315265
       1667 315268 315268 315268 315268
       1668 315269 315269 315269 315269
       1669 315272 315272 315272 315272
       1670 315273 315273 315273 315273
       1671 315274 315274 315274 315274
       1672 315280 315280 315280 315280
       1673 315282 315282 315282 315282
       1674 315286 315286 315286 315286
       1675 315287 315287 315287 315287
       1676 315295 315295 315295 315295
       1677 315298 315298 315298 315298
       1678 315302 315302 315302 315302
       1679 315305 315305 315305 315305
       1680 315306 315306 315306 315306
       1681 315309 315309 315309 315309
       1682 315311 315311 315311 315311
       1683 315317 315317 315317 315317
       1684 315320 315320 315320 315320
       1685 315322 315322 315322 315322
       1686 315325 315325 315325 315325
       1687 315326 315326 315326 315326
       1688 315334 315334 315334 315334
       1689 315337 315337 315337 315337
       1690 315341 315341 315341 315341
       1691 315344 315344 315344 315344
       1692 315345 315345 315345 315345
       1693 315348 315348 315348 315348
       1694 315351 315351 315351 315351
       1695 315352 315352 315352 315352
       1696 315354 315354 315354 315354
       1697 315361 315361 315361 315361
       1698 315363 315363 315363 315363
       1699 315365 315365 315365 315365
       1700 315368 315368 315368 315368
       1701 315369 315369 315369 315369
       1702 315377 315377 315377 315377
       1703 315380 315380 315380 315380
       1704 315384 315384 315384 315384
       1705 315387 315387 315387 315387
       1706 315388 315388 315388 315388
       1707 315391 315391 315391 315391
       1708 315393 315393 315393 315393
       1709 315400 315400 315400 315400
       1710 315402 315402 315402 315402
       1711 315404 315404 315404 315404
       1712 315408 315408 315408 315408
       1713 315415 315415 315415 315415
       1714 315418 315418 315418 315418
       1715 315422 315422 315422 315422
       1716 315425 315425 315425 315425
       1717 315426 315426 315426 315426
       1718 315429 315429 315429 315429
       1719 315430 315430 315430 315430
       1720 315431 315431 315431 315431
       1721 315437 315437 315437 315437
       1722 315439 315439 315439 315439
       1723 315441 315441 315441 315441
       1724 315445 315445 315445 315445
       1725 315453 315453 315453 315453
       1726 315456 315456 315456 315456
       1727 315460 315460 315460 315460
       1728 315463 315463 315463 315463
       1729 315464 315464 315464 315464
       1730 315467 315467 315467 315467
       1731 315468 315468 315468 315468
       1732 315469 315469 315469 315469
       1733 315471 315471 315471 315471
       1734 315472 315472 315472 315472
       1735 315477 315477 315477 315477
       1736 315479 315479 315479 315479
       1737 315481 315481 315481 315481
       1738 315485 315485 315485 315485
       1739 315493 315493 315493 315493
       1740 315496 315496 315496 315496
       1741 315500 315500 315500 315500
       1742 315503 315503 315503 315503
       1743 315504 315504 315504 315504
       1744 315507 315507 315507 315507
       1745 315508 315508 315508 315508
       1746 315509 315509 315509 315509
       1747 315510 315510 315510 315510
       1748 315515 315515 315515 315515
       1749 315517 315517 315517 315517
       1750 315519 315519 315519 315519
       1751 315529 315529 315529 315529
       1752 315532 315532 315532 315532
       1753 315536 315536 315536 315536
       1754 315539 315539 315539 315539
       1755 315540 315540 315540 315540
       1756 315543 315543 315543 315543
       1757 315549 315549 315549 315549
       1758 315555 315555 315555 315555
       1759 315557 315557 315557 315557
       1760 315559 315559 315559 315559
       1761 315571 315571 315571 315571
       1762 315574 315574 315574 315574
       1763 315578 315578 315578 315578
       1764 315581 315581 315581 315581
       1765 315582 315582 315582 315582
       1766 315585 315585 315585 315585
       1767 315587 315587 315587 315587
       1768 315589 315589 315589 315589
       1769 315593 315593 315593 315593
       1770 315595 315595 315595 315595
       1771 315597 315597 315597 315597
       1772 315609 315609 315609 315609
       1773 315612 315612 315612 315612
       1774 315616 315616 315616 315616
       1775 315619 315619 315619 315619
       1776 315620 315620 315620 315620
       1777 315623 315623 315623 315623
       1778 315625 315625 315625 315625
       1779 315630 315630 315630 315630
       1780 315632 315632 315632 315632
       1781 315634 315634 315634 315634
       1782 315646 315646 315646 315646
       1783 315649 315649 315649 315649
       1784 315653 315653 315653 315653
       1785 315656 315656 315656 315656
       1786 315657 315657 315657 315657
       1787 315660 315660 315660 315660
       1788 315663 315663 315663 315663
       1789 315667 315667 315667 315667
       1790 315670 315670 315670 315670
       1791 315672 315672 315672 315672
       1792 315682 315682 315682 315682
       1793 315685 315685 315685 315685
       1794 315689 315689 315689 315689
       1795 315692 315692 315692 315692
       1796 315693 315693 315693 315693
       1797 315696 315696 315696 315696
       1798 315699 315699 315699 315699
       1799 315703 315703 315703 315703
       1800 315706 315706 315706 315706
       1801 315708 315708 315708 315708
       1802 315720 315720 315720 315720
       1803 315723 315723 315723 315723
       1804 315727 315727 315727 315727
       1805 315730 315730 315730 315730
       1806 315731 315731 315731 315731
       1807 315734 315734 315734 315734
       1808 315737 315737 315737 315737
       1809 315741 315741 315741 315741
       1810 315744 315744 315744 315744
       1811 315746 315746 315746 315746
       1812 315758 315758 315758 315758
       1813 315761 315761 315761 315761
       1814 315765 315765 315765 315765
       1815 315768 315768 315768 315768
       1816 315769 315769 315769 315769
       1817 315772 315772 315772 315772
       1818 315775 315775 315775 315775
       1819 315779 315779 315779 315779
       1820 315782 315782 315782 315782
       1821 315784 315784 315784 315784
       1822 315796 315796 315796 315796
       1823 315799 315799 315799 315799
       1824 315803 315803 315803 315803
       1825 315806 315806 315806 315806
       1826 315807 315807 315807 315807
       1827 315810 315810 315810 315810
       1828 315811 315811 315811 315811
       1829 315813 315813 315813 315813
       1830 315819 315819 315819 315819
       1831 315822 315822 315822 315822
       1832 315824 315824 315824 315824
       1833 315836 315836 315836 315836
       1834 315839 315839 315839 315839
       1835 315843 315843 315843 315843
       1836 315846 315846 315846 315846
       1837 315847 315847 315847 315847
       1838 315850 315850 315850 315850
       1839 315851 315851 315851 315851
       1840 315858 315858 315858 315858
       1841 315861 315861 315861 315861
       1842 315863 315863 315863 315863
       1843 315875 315875 315875 315875
       1844 315878 315878 315878 315878
       1845 315882 315882 315882 315882
       1846 315885 315885 315885 315885
       1847 315886 315886 315886 315886
       1848 315889 315889 315889 315889
       1849 315895 315895 315895 315895
       1850 315897 315897 315897 315897
       1851 315899 315899 315899 315899
       1852 315911 315911 315911 315911
       1853 315914 315914 315914 315914
       1854 315918 315918 315918 315918
       1855 315921 315921 315921 315921
       1856 315922 315922 315922 315922
       1857 315925 315925 315925 315925
       1858 315931 315931 315931 315931
       1859 315934 315934 315934 315934
       1860 315936 315936 315936 315936
       1861 315947 315947 315947 315947
       1862 315950 315950 315950 315950
       1863 315954 315954 315954 315954
       1864 315957 315957 315957 315957
       1865 315958 315958 315958 315958
       1866 315961 315961 315961 315961
       1867 315962 315962 315962 315962
       1868 315963 315963 315963 315963
       1869 315964 315964 315964 315964
       1870 315971 315971 315971 315971
       1871 315974 315974 315974 315974
       1872 315976 315976 315976 315976
       1873 315978 315978 315978 315978
       1874 315988 315988 315988 315988
       1875 315991 315991 315991 315991
       1876 315995 315995 315995 315995
       1877 315998 315998 315998 315998
[...]
     number of failed solid  elements = 0
     number of failed beam   elements = 0
     number of failed shell  elements = 0
     number of failed tshell elements = 0
 f a i l e d   e l e m e n t   r e p o r t  time=  3.1622E-05
     number of failed solid  elements = 0
     number of failed beam   elements = 0
     number of failed shell  elements = 0
     number of failed tshell elements = 0
 f a i l e d   e l e m e n t   r e p o r t  time=  3.1912E-05
     number of failed solid  elements = 0
     number of failed beam   elements = 0
     number of failed shell  elements = 0
     number of failed tshell elements = 0
 f a i l e d   e l e m e n t   r e p o r t  time=  3.2432E-05
     number of failed solid  elements = 0
     number of failed beam   elements = 0
     number of failed shell  elements = 0
     number of failed tshell elements = 0
 f a i l e d   e l e m e n t   r e p o r t  time=  3.3010E-05
     number of failed solid  elements = 0
     number of failed beam   elements = 0
     number of failed shell  elements = 0
     number of failed tshell elements = 0
 f a i l e d   e l e m e n t   r e p o r t  time=  3.3021E-05
     number of failed solid  elements = 0
     number of failed beam   elements = 0
     number of failed shell  elements = 0
     number of failed tshell elements = 0
 f a i l e d   e l e m e n t   r e p o r t  time=  3.3092E-05
     number of failed solid  elements = 0
     number of failed beam   elements = 0
     number of failed shell  elements = 0
     number of failed tshell elements = 0
 f a i l e d   e l e m e n t   r e p o r t  time=  3.4181E-05
     number of failed solid  elements = 0
     number of failed beam   elements = 0
     number of failed shell  elements = 0
     number of failed tshell elements = 0
 f a i l e d   e l e m e n t   r e p o r t  time=  3.4247E-05
     number of failed solid  elements = 0
     number of failed beam   elements = 0
     number of failed shell  elements = 0
     number of failed tshell elements = 0
 f a i l e d   e l e m e n t   r e p o r t  time=  3.4293E-05
     number of failed solid  elements = 0
     number of failed beam   elements = 0
     number of failed shell  elements = 0
     number of failed tshell elements = 0
 f a i l e d   e l e m e n t   r e p o r t  time=  3.4326E-05
     number of failed solid  elements = 0
     number of failed beam   elements = 0
     number of failed shell  elements = 0
     number of failed tshell elements = 0
 f a i l e d   e l e m e n t   r e p o r t  time=  3.4364E-05
     number of failed solid  elements = 0
     number of failed beam   elements = 0
     number of failed shell  elements = 0
     number of failed tshell elements = 0
 f a i l e d   e l e m e n t   r e p o r t  time=  3.5084E-05
     number of failed solid  elements = 0
     number of failed beam   elements = 0
     number of failed shell  elements = 0
     number of failed tshell elements = 0
 f a i l e d   e l e m e n t   r e p o r t  time=  3.5418E-05
     number of failed solid  elements = 0
     number of failed beam   elements = 0
     number of failed shell  elements = 0
     number of failed tshell elements = 0
 f a i l e d   e l e m e n t   r e p o r t  time=  3.5431E-05
     number of failed solid  elements = 0
     number of failed beam   elements = 0
     number of failed shell  elements = 0
     number of failed tshell elements = 0
 f a i l e d   e l e m e n t   r e p o r t  time=  3.5569E-05
     number of failed solid  elements = 0
     number of failed beam   elements = 0
     number of failed shell  elements = 0
     number of failed tshell elements = 0
 f a i l e d   e l e m e n t   r e p o r t  time=  3.6050E-05
     number of failed solid  elements = 0
     number of failed beam   elements = 0
     number of failed shell  elements = 0
     number of failed tshell elements = 0
 f a i l e d   e l e m e n t   r e p o r t  time=  3.6294E-05
     number of failed solid  elements = 0
     number of failed beam   elements = 0
     number of failed shell  elements = 0
     number of failed tshell elements = 0
 f a i l e d   e l e m e n t   r e p o r t  time=  3.6494E-05
     number of failed solid  elements = 0
     number of failed beam   elements = 0
     number of failed shell  elements = 0
     number of failed tshell elements = 0
 f a i l e d   e l e m e n t   r e p o r t  time=  3.6756E-05
     number of failed solid  elements = 0
     number of failed beam   elements = 0
     number of failed shell  elements = 0
     number of failed tshell elements = 0
 f a i l e d   e l e m e n t   r e p o r t  time=  3.7561E-05
     number of failed solid  elements = 0
     number of failed beam   elements = 0
     number of failed shell  elements = 0
     number of failed tshell elements = 0
 f a i l e d   e l e m e n t   r e p o r t  time=  3.7563E-05
     number of failed solid  elements = 0
     number of failed beam   elements = 0
     number of failed shell  elements = 0
     number of failed tshell elements = 0
 f a i l e d   e l e m e n t   r e p o r t  time=  3.7571E-05
     number of failed solid  elements = 0
     number of failed beam   elements = 0
     number of failed shell  elements = 0
     number of failed tshell elements = 0
 f a i l e d   e l e m e n t   r e p o r t  time=  3.7609E-05
     number of failed solid  elements = 0
     number of failed beam   elements = 0
     number of failed shell  elements = 0
     number of failed tshell elements = 0
 f a i l e d   e l e m e n t   r e p o r t  time=  3.7770E-05
     number of failed solid  elements = 0
     number of failed beam   elements = 0
     number of failed shell  elements = 0
     number of failed tshell elements = 0
 f a i l e d   e l e m e n t   r e p o r t  time=  3.8106E-05
     number of failed solid  elements = 0
     number of failed beam   elements = 0
     number of failed shell  elements = 0
     number of failed tshell elements = 0
 f a i l e d   e l e m e n t   r e p o r t  time=  3.9043E-05
     number of failed solid  elements = 0
     number of failed beam   elements = 0
     number of failed shell  elements = 0
     number of failed tshell elements = 0
 f a i l e d   e l e m e n t   r e p o r t  time=  3.9117E-05
     number of failed solid  elements = 0
     number of failed beam   elements = 0
     number of failed shell  elements = 0
     number of failed tshell elements = 0
 f a i l e d   e l e m e n t   r e p o r t  time=  3.9670E-05
     number of failed solid  elements = 0
     number of failed beam   elements = 0
     number of failed shell  elements = 0
     number of failed tshell elements = 0
 f a i l e d   e l e m e n t   r e p o r t  time=  3.9759E-05
     number of failed solid  elements = 0
     number of failed beam   elements = 0
     number of failed shell  elements = 0
     number of failed tshell elements = 0
 f a i l e d   e l e m e n t   r e p o r t  time=  4.0596E-05
     number of failed solid  elements = 0
     number of failed beam   elements = 0
     number of failed shell  elements = 0
     number of failed tshell elements = 0
 f a i l e d   e l e m e n t   r e p o r t  time=  4.0698E-05
     number of failed solid  elements = 0
     number of failed beam   elements = 0
     number of failed shell  elements = 0
     number of failed tshell elements = 0
 f a i l e d   e l e m e n t   r e p o r t  time=  4.0781E-05
     number of failed solid  elements = 0
     number of failed beam   elements = 0
     number of failed shell  elements = 0
     number of failed tshell elements = 0
 f a i l e d   e l e m e n t   r e p o r t  time=  4.2098E-05
     number of failed solid  elements = 0
     number of failed beam   elements = 0
     number of failed shell  elements = 0
     number of failed tshell elements = 0
 f a i l e d   e l e m e n t   r e p o r t  time=  4.2186E-05
     number of failed solid  elements = 0
     number of failed beam   elements = 0
     number of failed shell  elements = 0
     number of failed tshell elements = 0
 f a i l e d   e l e m e n t   r e p o r t  time=  4.2551E-05
     number of failed solid  elements = 0
     number of failed beam   elements = 0
     number of failed shell  elements = 0
     number of failed tshell elements = 0
 f a i l e d   e l e m e n t   r e p o r t  time=  4.2929E-05
     number of failed solid  elements = 0
     number of failed beam   elements = 0
     number of failed shell  elements = 0
     number of failed tshell elements = 0
 f a i l e d   e l e m e n t   r e p o r t  time=  4.3341E-05
     number of failed solid  elements = 0
     number of failed beam   elements = 0
     number of failed shell  elements = 0
     number of failed tshell elements = 0
 f a i l e d   e l e m e n t   r e p o r t  time=  4.5272E-05
     number of failed solid  elements = 0
     number of failed beam   elements = 0
     number of failed shell  elements = 0
     number of failed tshell elements = 0
 f a i l e d   e l e m e n t   r e p o r t  time=  4.6399E-05
     number of failed solid  elements = 0
     number of failed beam   elements = 0
     number of failed shell  elements = 0
     number of failed tshell elements = 0
 f a i l e d   e l e m e n t   r e p o r t  time=  4.6954E-05
     number of failed solid  elements = 0
     number of failed beam   elements = 0
     number of failed shell  elements = 0
     number of failed tshell elements = 0
 f a i l e d   e l e m e n t   r e p o r t  time=  4.7911E-05
     number of failed solid  elements = 0
     number of failed beam   elements = 0
     number of failed shell  elements = 0
     number of failed tshell elements = 0
 f a i l e d   e l e m e n t   r e p o r t  time=  4.7967E-05
     number of failed solid  elements = 0
     number of failed beam   elements = 0
     number of failed shell  elements = 0
     number of failed tshell elements = 0
 f a i l e d   e l e m e n t   r e p o r t  time=  4.8163E-05
     number of failed solid  elements = 0
     number of failed beam   elements = 0
     number of failed shell  elements = 0
     number of failed tshell elements = 0
 f a i l e d   e l e m e n t   r e p o r t  time=  4.9005E-05
     number of failed solid  elements = 0
     number of failed beam   elements = 0
     number of failed shell  elements = 0
     number of failed tshell elements = 0
 f a i l e d   e l e m e n t   r e p o r t  time=  5.1471E-05
     number of failed solid  elements = 0
     number of failed beam   elements = 0
     number of failed shell  elements = 0
     number of failed tshell elements = 0
 f a i l e d   e l e m e n t   r e p o r t  time=  5.2806E-05
     number of failed solid  elements = 0
     number of failed beam   elements = 0
     number of failed shell  elements = 0
     number of failed tshell elements = 0
 Element deleted due to damage
     solid element 33965  failed at time  5.4499E-05
 f a i l e d   e l e m e n t   r e p o r t  time=  5.4499E-05
     number of failed solid  elements = 1
     number of failed beam   elements = 0
     number of failed shell  elements = 0
     number of failed tshell elements = 0
 f a i l e d   e l e m e n t   r e p o r t  time=  5.5530E-05
     number of failed solid  elements = 1
     number of failed beam   elements = 0
     number of failed shell  elements = 0
     number of failed tshell elements = 0
 f a i l e d   e l e m e n t   r e p o r t  time=  5.5930E-05
     number of failed solid  elements = 1
     number of failed beam   elements = 0
     number of failed shell  elements = 0
     number of failed tshell elements = 0
 f a i l e d   e l e m e n t   r e p o r t  time=  5.6006E-05
     number of failed solid  elements = 1
     number of failed beam   elements = 0
     number of failed shell  elements = 0
     number of failed tshell elements = 0
 f a i l e d   e l e m e n t   r e p o r t  time=  5.7102E-05
     number of failed solid  elements = 1
     number of failed beam   elements = 0
     number of failed shell  elements = 0
     number of failed tshell elements = 0
 f a i l e d   e l e m e n t   r e p o r t  time=  5.7681E-05
     number of failed solid  elements = 1
     number of failed beam   elements = 0
     number of failed shell  elements = 0
     number of failed tshell elements = 0
 f a i l e d   e l e m e n t   r e p o r t  time=  5.8178E-05
     number of failed solid  elements = 1
     number of failed beam   elements = 0
     number of failed shell  elements = 0
     number of failed tshell elements = 0
 f a i l e d   e l e m e n t   r e p o r t  time=  5.9290E-05
     number of failed solid  elements = 1
     number of failed beam   elements = 0
     number of failed shell  elements = 0
     number of failed tshell elements = 0
 f a i l e d   e l e m e n t   r e p o r t  time=  5.9445E-05
     number of failed solid  elements = 1
     number of failed beam   elements = 0
     number of failed shell  elements = 0
     number of failed tshell elements = 0
 f a i l e d   e l e m e n t   r e p o r t  time=  5.9893E-05
     number of failed solid  elements = 1
     number of failed beam   elements = 0
     number of failed shell  elements = 0
     number of failed tshell elements = 0

 S t o r a g e   a l l o c a t i o n   

 Memory required to complete solution   :     275K
 Additional dynamically allocated memory:      30M
                                   Total:      30M


 P r o c e s s o r   #         2

 T i m i n g   i n f o r m a t i o n
                        CPU(seconds)   %CPU  Clock(seconds) %Clock
  ----------------------------------------------------------------
  Keyword Processing ... 2.9299E-01    0.10     2.9425E-01    0.10
  MPP Decomposition .... 5.7619E-01    0.19     6.2051E-01    0.20
    Init Proc .......... 4.4564E-01    0.15     4.4748E-01    0.15
    Decomposition ...... 3.5319E-02    0.01     3.5476E-02    0.01
    Translation ........ 9.5148E-02    0.03     1.3748E-01    0.05
  Initialization ....... 1.4273E-01    0.05     1.5124E-01    0.05
    Init Proc Phase 1 .. 1.0081E-01    0.03     1.0575E-01    0.03
    Init Proc Phase 2 .. 1.2150E-02    0.00     1.2764E-02    0.00
  Element processing ... 1.2066E+02   39.87     1.2132E+02   39.85
    Solids ............. 1.1497E+02   37.99     1.1559E+02   37.97
    E Other ............ 1.4947E-01    0.05     1.5013E-01    0.05
  Binary databases ..... 5.3462E-01    0.18     5.3897E-01    0.18
  ASCII database ....... 2.0707E+00    0.68     2.0864E+00    0.69
  Contact algorithm .... 6.3820E+01   21.09     6.4170E+01   21.08
    Interf. ID         3 1.6345E+01    5.40     1.6432E+01    5.40
    Interf. ID         2 4.0952E+01   13.53     4.1178E+01   13.53
  Rigid Bodies ......... 4.1998E-01    0.14     4.1985E-01    0.14
  DEM .................. 2.1990E+01    7.27     2.2111E+01    7.26
    DEM self contact ... 2.1396E+01    7.07     2.1516E+01    7.07
  Time step size ....... 5.3747E+01   17.76     5.4034E+01   17.75
  Group force file ..... 5.6214E-02    0.02     6.6119E-02    0.02
  Others ............... 1.7198E+00    0.57     1.7552E+00    0.58
    Force Sharing ...... 1.1392E+00    0.38     1.1444E+00    0.38
  Misc. 1 .............. 2.1938E+01    7.25     2.2066E+01    7.25
    Scale Masses ....... 2.3969E-02    0.01     2.3811E-02    0.01
    Force Constraints .. 4.1803E-02    0.01     4.2416E-02    0.01
    Force to Accel ..... 2.0743E+00    0.69     2.0797E+00    0.68
    Constraint Sharing . 5.8191E-02    0.02     5.8606E-02    0.02
    Update RB nodes .... 4.0840E-02    0.01     4.1439E-02    0.01
  Misc. 2 .............. 5.2793E+00    1.74     5.2999E+00    1.74
  Misc. 3 .............. 7.9850E+00    2.64     8.0647E+00    2.65
  Misc. 4 .............. 1.4265E+00    0.47     1.4341E+00    0.47
    Timestep Init ...... 1.0347E+00    0.34     1.0332E+00    0.34
    Apply Loads ........ 3.2147E-01    0.11     3.2980E-01    0.11
  ----------------------------------------------------------------
  T o t a l s            3.0266E+02  100.00     3.0443E+02  100.00


 A v e r a g e s

 T i m i n g   i n f o r m a t i o n
                        CPU(seconds)   %CPU  Clock(seconds) %Clock
  ----------------------------------------------------------------
  Keyword Processing ... 2.7222E-01    0.09     2.9384E-01    0.10
    KW Reading ......... 1.8597E-02    0.01     1.8880E-02    0.01
    KW Writing ......... 1.0890E-02    0.00     1.7439E-02    0.01
  MPP Decomposition .... 5.2729E-01    0.18     6.2091E-01    0.20
    Init Proc .......... 4.0883E-01    0.14     4.4747E-01    0.15
    Decomposition ...... 3.0257E-02    0.01     3.5491E-02    0.01
    Translation ........ 8.8130E-02    0.03     1.3787E-01    0.05
  Initialization ....... 1.3796E-01    0.05     1.5124E-01    0.05
    Init Proc Phase 1 .. 1.0091E-01    0.03     1.0573E-01    0.03
    Init Proc Phase 2 .. 1.1626E-02    0.00     1.2772E-02    0.00
  Element processing ... 1.3158E+02   43.70     1.3234E+02   43.47
    Solids ............. 1.2627E+02   41.94     1.2699E+02   41.71
    E Other ............ 1.4674E-01    0.05     1.4787E-01    0.05
  Binary databases ..... 5.1471E-01    0.17     5.3015E-01    0.17
  ASCII database ....... 2.2873E+00    0.76     3.7506E+00    1.23
  Contact algorithm .... 6.5005E+01   21.59     6.5363E+01   21.47
    Interf. ID         3 1.6899E+01    5.61     1.6988E+01    5.58
    Interf. ID         2 4.1990E+01   13.95     4.2224E+01   13.87
  Rigid Bodies ......... 3.0066E-01    0.10     3.0019E-01    0.10
  DEM .................. 2.1088E+01    7.00     2.1203E+01    6.96
    DEM self contact ... 2.0515E+01    6.81     2.0629E+01    6.78
  Time step size ....... 4.2775E+01   14.21     4.2989E+01   14.12
  Group force file ..... 6.2516E-02    0.02     7.3279E-02    0.02
  Others ............... 2.0713E+00    0.69     2.1064E+00    0.69
    Force Sharing ...... 1.5536E+00    0.52     1.5600E+00    0.51
  Misc. 1 .............. 2.1517E+01    7.15     2.1655E+01    7.11
    Scale Masses ....... 2.2776E-02    0.01     2.2420E-02    0.01
    Force Constraints .. 3.6836E-02    0.01     3.7579E-02    0.01
    Force to Accel ..... 2.0982E+00    0.70     2.1046E+00    0.69
    Constraint Sharing . 4.4807E-02    0.01     4.5371E-02    0.01
    Update RB nodes .... 4.4833E-02    0.01     4.5707E-02    0.02
  Misc. 2 .............. 5.1596E+00    1.71     5.1791E+00    1.70
  Misc. 3 .............. 6.3567E+00    2.11     6.4341E+00    2.11
  Misc. 4 .............. 1.4313E+00    0.48     1.4391E+00    0.47
    Timestep Init ...... 1.0230E+00    0.34     1.0231E+00    0.34
    Apply Loads ........ 3.3836E-01    0.11     3.4516E-01    0.11
  ----------------------------------------------------------------
  T o t a l s            3.0109E+02  100.00     3.0443E+02  100.00

 Problem time       =    6.0001E-05
 Problem cycle      =     55653
 Total CPU time     =       301 seconds (   0 hours  5 minutes  1 seconds)
 CPU time per zone cycle  =        465.982 nanoseconds
 Clock time per zone cycle=        471.097 nanoseconds

 Parallel execution with      4 MPP proc
 NLQ used/max                64/    64

  C P U   T i m i n g   i n f o r m a t i o n

  Processor   Hostname                              CPU/Avg_CPU  CPU(seconds)
  ---------------------------------------------------------------------------
  #       0   compute-0-1                               0.98438   2.9644E+02
  #       1   compute-0-1                               1.00507   3.0267E+02
  #       2   compute-0-1                               1.00524   3.0272E+02
  #       3   compute-0-1                               1.00530   3.0274E+02
  ---------------------------------------------------------------------------
  T o t a l s                                                     1.2046E+03


 Start time   04/08/2022 13:41:01  
 End time     04/08/2022 13:46:05  
 Elapsed time     304 seconds for   55653 cycles using     4 MPP procs
             (      0 hour   5 minutes  4 seconds)

 N o r m a l    t e r m i n a t i o n                          04/08/22 13:46:05
