      Date: 04/08/2022      Time: 13:41:01  

     ___________________________________________________
     |                                                 |
     |  Livermore Software Technology, LLC             |
     |                                                 |
     |  7374 Las Positas Road                          |
     |  Livermore, CA 94551                            |
     |  Tel: (925) 449-2500  Fax: (925) 449-2507       |
     |  www.lstc.com                                   |
     |_________________________________________________|
     |                                                 |
     |  LS-DYNA, A Program for Nonlinear Dynamic       |
     |  Analysis of Structures in Three Dimensions     |
     |  Version : mpp d R12.0.0   Date: 06/19/2020     |
     |  Revision: 148931          Time: 17:26:40       |
     |                                                 |
     |  Features enabled in this version:              |
     |    Distributed Memory Parallel                  |
     |    CESE CHEMISTRY EM ICFD STOCHASTIC_PARTICLES  |
     |    FFTW (multi-dimensional FFTW Library)        |
     |    ANSYS License (ANSYS202)                     |
     |    BigID  option                                |
     |                                                 |
     |  Licensed to:                                   |
     |  Issued by  : Pascale.SaneGuttin_02092022       |
     |                                                 |
     |  Platform   : Intel-MPI 2018 Xeon64             |
     |  OS Level   : Linux CentOS 6.5 uom              |
     |  Compiler   : Intel Fortran Compiler 16.0 AVX-2 |
     |  Hostname   : compute-0-1                       |
     |  Precision  : Double precision (I8R8)           |
     |  SVN Version: 148978                            |
     |                                                 |
     |  Unauthorized use infringes LST copyrights      |
     |_________________________________________________|


 Input file: DynaOpt.key                                                                     

 The native file format       : 64-bit small endian

 LS-DYNA will perform a structural only analysis 

 allocating  memory to   100000000 d     1985258 hex ownership chunk
 contracting memory to           7 d     1991036 material sort chunk
 expanding   memory to          12 d     2056689 nodal force sharing lists 1
 expanding   memory to          18 d     2037347 mat scratch
 expanding   memory to          19 d     3108797 tied nodes scratch
 expanding   memory to          22 d     3108797 tied node scratch
 contracting memory to          18 d     3108797 nodal rigid body scratch
 expanding   memory to        1298 d     3108797 DES sld2des scratch
 expanding   memory to       19448 d     3108797 DES sld2des scratch
 contracting memory to        2450 d     3108797 DES sld2des scratch
 contracting memory to          18 d     3108797 spring/damper scratch
 contracting memory to           1 d     2098914 Performing Decomposition -- Phase 3
 LS-DYNA keyword deck by LS-PrePost                                      
                         ls-dyna mpp.148931 d           date 06/19/2020
 expanding   memory to        4305 d     2098914 material, node and element data
 expanding   memory to        4399 d     2098933 mat add general damage 0
 expanding   memory to        4459 d     2098933 material added airbag porosity leakage 
 expanding   memory to        4477 d     2098933 material properties
 expanding   memory to        4495 d     2138827 element data for composite material
 expanding   memory to        4510 d     2477632 gradient of damage data
 expanding   memory to       17632 d     2520976 user control for contact interfaces
 contracting memory to       17618 d     2520976 thermal expansion 0
 expanding   memory to       17624 d     2520976 state of charge expansion 0
 expanding   memory to       17626 d     2520976 cross-sectional force definitions 0
 expanding   memory to       27583 d     2521012 temp index array for node sorting
 contracting memory to       17626 d     2521012 just because?
 expanding   memory to       20515 d     2540944 arbitrary element numbering input
 contracting memory to       17646 d    27197275 spc cards
 contracting memory to       17633 d    27197275 d3thdt storage
 expanding   memory to       17634 d    27286388 process element material data
 expanding   memory to       19635 d    27286382 load curve data
 contracting memory to       17641 d    27286382 user_define_loading_set
 expanding   memory to       17841 d    27286382 regularize time history data
 contracting memory to       17645 d    27286382 *DEFINE_ELEMENT_DEATH
 expanding   memory to       17900 d    27267414 contact interfaces
 expanding   memory to       38814 d    27267414 implicit contact 1
 expanding   memory to       61876 d    27267414 implicit contact 2
 contracting memory to       18900 d    27535687 contact segment data 1
 expanding   memory to       71883 d    27787264 contact segment data 3
 expanding   memory to      164451 d    27659857 read contacts, eroding check
 expanding   memory to      253897 d    27659857 eroding neighbors 2
 expanding   memory to      274121 d    27659857 eroding neighbors
 contracting memory to      112331 d    28108003 contact definition
 expanding   memory to      112337 d    28257418 contact history
 expanding   memory to      112391 d    28339559 rigid body
 expanding   memory to      112409 d    28340173 rbe2 scratch
 contracting memory to      112395 d    28402781 contact friction
 expanding   memory to      112485 d    28402787 joints
 expanding   memory to      114545 d    28402787 de sld2des
 expanding   memory to      114585 d    28411454 discrete elements regions
 expanding   memory to      114685 d    28616354 rigid bodies for disp. termination
 
 *** Warning 40859 (SOL+859)
     Cannot find elements of slave segment of interface 2
 deleted segment ID          n1          n2          n3          n4
       1 310646 310646 310646 310646
       2 310647 310647 310647 310647
       3 310648 310648 310648 310648
       4 310652 310652 310652 310652
       5 310660 310660 310660 310660
       6 310664 310664 310664 310664
       7 310665 310665 310665 310665
       8 310670 310670 310670 310670
       9 310672 310672 310672 310672
       10 310679 310679 310679 310679
       11 310680 310680 310680 310680
       12 310684 310684 310684 310684
       13 310686 310686 310686 310686
       14 310687 310687 310687 310687
       15 310688 310688 310688 310688
       16 310692 310692 310692 310692
       17 310700 310700 310700 310700
       18 310704 310704 310704 310704
       19 310705 310705 310705 310705
       20 310710 310710 310710 310710
       21 310712 310712 310712 310712
       22 310719 310719 310719 310719
       23 310720 310720 310720 310720
       24 310724 310724 310724 310724
       25 310729 310729 310729 310729
       26 310732 310732 310732 310732
       27 310733 310733 310733 310733
       28 310734 310734 310734 310734
       29 310738 310738 310738 310738
       30 310749 310749 310749 310749
       31 310750 310750 310750 310750
       32 310755 310755 310755 310755
       33 310757 310757 310757 310757
       34 310764 310764 310764 310764
       35 310766 310766 310766 310766
       36 310768 310768 310768 310768
       37 310771 310771 310771 310771
       38 310772 310772 310772 310772
       39 310773 310773 310773 310773
       40 310774 310774 310774 310774
       41 310778 310778 310778 310778
       42 310789 310789 310789 310789
       43 310790 310790 310790 310790
       44 310795 310795 310795 310795
       45 310797 310797 310797 310797
       46 310804 310804 310804 310804
       47 310808 310808 310808 310808
       48 310810 310810 310810 310810
       49 310811 310811 310811 310811
       50 310812 310812 310812 310812
       51 310815 310815 310815 310815
       52 310827 310827 310827 310827
       53 310828 310828 310828 310828
       54 310833 310833 310833 310833
       55 310835 310835 310835 310835
       56 310842 310842 310842 310842
       57 310845 310845 310845 310845
       58 310848 310848 310848 310848
       59 310849 310849 310849 310849
       60 310850 310850 310850 310850
       61 310851 310851 310851 310851
       62 310854 310854 310854 310854
       63 310866 310866 310866 310866
       64 310867 310867 310867 310867
       65 310872 310872 310872 310872
       66 310874 310874 310874 310874
       67 310881 310881 310881 310881
       68 310883 310883 310883 310883
       69 310884 310884 310884 310884
       70 310887 310887 310887 310887
       71 310888 310888 310888 310888
       72 310889 310889 310889 310889
       73 310890 310890 310890 310890
       74 310893 310893 310893 310893
       75 310894 310894 310894 310894
       76 310906 310906 310906 310906
       77 310907 310907 310907 310907
       78 310912 310912 310912 310912
       79 310914 310914 310914 310914
       80 310921 310921 310921 310921
       81 310927 310927 310927 310927
       82 310928 310928 310928 310928
       83 310929 310929 310929 310929
       84 310930 310930 310930 310930
       85 310932 310932 310932 310932
       86 310934 310934 310934 310934
       87 310946 310946 310946 310946
       88 310947 310947 310947 310947
       89 310953 310953 310953 310953
       90 310960 310960 310960 310960
       91 310962 310962 310962 310962
       92 310966 310966 310966 310966
       93 310968 310968 310968 310968
       94 310969 310969 310969 310969
       95 310970 310970 310970 310970
       96 310972 310972 310972 310972
       97 310974 310974 310974 310974
       98 310985 310985 310985 310985
       99 310986 310986 310986 310986
       100 310993 310993 310993 310993
       101 311000 311000 311000 311000
       102 311004 311004 311004 311004
       103 311005 311005 311005 311005
       104 311007 311007 311007 311007
       105 311008 311008 311008 311008
       106 311011 311011 311011 311011
       107 311012 311012 311012 311012
       108 311024 311024 311024 311024
       109 311025 311025 311025 311025
       110 311032 311032 311032 311032
       111 311036 311036 311036 311036
       112 311039 311039 311039 311039
       113 311041 311041 311041 311041
       114 311044 311044 311044 311044
       115 311045 311045 311045 311045
       116 311047 311047 311047 311047
       117 311048 311048 311048 311048
       118 311049 311049 311049 311049
       119 311051 311051 311051 311051
       120 311052 311052 311052 311052
       121 311063 311063 311063 311063
       122 311064 311064 311064 311064
       123 311071 311071 311071 311071
       124 311074 311074 311074 311074
       125 311077 311077 311077 311077
       126 311080 311080 311080 311080
       127 311081 311081 311081 311081
       128 311083 311083 311083 311083
       129 311084 311084 311084 311084
       130 311085 311085 311085 311085
       131 311087 311087 311087 311087
       132 311088 311088 311088 311088
       133 311089 311089 311089 311089
       134 311101 311101 311101 311101
       135 311102 311102 311102 311102
       136 311109 311109 311109 311109
       137 311113 311113 311113 311113
       138 311116 311116 311116 311116
       139 311119 311119 311119 311119
       140 311120 311120 311120 311120
       141 311121 311121 311121 311121
       142 311122 311122 311122 311122
       143 311123 311123 311123 311123
       144 311126 311126 311126 311126
       145 311127 311127 311127 311127
       146 311139 311139 311139 311139
       147 311140 311140 311140 311140
       148 311147 311147 311147 311147
       149 311151 311151 311151 311151
       150 311154 311154 311154 311154
       151 311159 311159 311159 311159
       152 311160 311160 311160 311160
       153 311161 311161 311161 311161
       154 311162 311162 311162 311162
       155 311163 311163 311163 311163
       156 311164 311164 311164 311164
       157 311166 311166 311166 311166
       158 311170 311170 311170 311170
       159 311179 311179 311179 311179
       160 311180 311180 311180 311180
       161 311187 311187 311187 311187
       162 311191 311191 311191 311191
       163 311194 311194 311194 311194
       164 311196 311196 311196 311196
       165 311201 311201 311201 311201
       166 311202 311202 311202 311202
       167 311203 311203 311203 311203
       168 311204 311204 311204 311204
       169 311205 311205 311205 311205
       170 311206 311206 311206 311206
       171 311207 311207 311207 311207
       172 311210 311210 311210 311210
       173 311211 311211 311211 311211
       174 311222 311222 311222 311222
       175 311223 311223 311223 311223
       176 311230 311230 311230 311230
       177 311234 311234 311234 311234
       178 311237 311237 311237 311237
       179 311241 311241 311241 311241
       180 311243 311243 311243 311243
       181 311244 311244 311244 311244
       182 311245 311245 311245 311245
       183 311246 311246 311246 311246
       184 311249 311249 311249 311249
       185 311250 311250 311250 311250
       186 311262 311262 311262 311262
       187 311263 311263 311263 311263
       188 311270 311270 311270 311270
       189 311274 311274 311274 311274
       190 311277 311277 311277 311277
       191 311279 311279 311279 311279
       192 311280 311280 311280 311280
       193 311281 311281 311281 311281
       194 311282 311282 311282 311282
       195 311283 311283 311283 311283
       196 311284 311284 311284 311284
       197 311285 311285 311285 311285
       198 311286 311286 311286 311286
       199 311289 311289 311289 311289
       200 311301 311301 311301 311301
       201 311302 311302 311302 311302
       202 311309 311309 311309 311309
       203 311313 311313 311313 311313
       204 311316 311316 311316 311316
       205 311319 311319 311319 311319
       206 311320 311320 311320 311320
       207 311321 311321 311321 311321
       208 311322 311322 311322 311322
       209 311323 311323 311323 311323
       210 311324 311324 311324 311324
       211 311325 311325 311325 311325
       212 311326 311326 311326 311326
       213 311329 311329 311329 311329
       214 311341 311341 311341 311341
       215 311342 311342 311342 311342
       216 311343 311343 311343 311343
       217 311350 311350 311350 311350
       218 311354 311354 311354 311354
       219 311357 311357 311357 311357
       220 311362 311362 311362 311362
       221 311363 311363 311363 311363
       222 311364 311364 311364 311364
       223 311365 311365 311365 311365
       224 311366 311366 311366 311366
       225 311369 311369 311369 311369
       226 311381 311381 311381 311381
       227 311382 311382 311382 311382
       228 311383 311383 311383 311383
       229 311390 311390 311390 311390
       230 311394 311394 311394 311394
       231 311397 311397 311397 311397
       232 311402 311402 311402 311402
       233 311403 311403 311403 311403
       234 311404 311404 311404 311404
       235 311405 311405 311405 311405
       236 311407 311407 311407 311407
       237 311410 311410 311410 311410
       238 311421 311421 311421 311421
       239 311422 311422 311422 311422
       240 311423 311423 311423 311423
       241 311430 311430 311430 311430
       242 311434 311434 311434 311434
       243 311437 311437 311437 311437
       244 311442 311442 311442 311442
       245 311444 311444 311444 311444
       246 311445 311445 311445 311445
       247 311448 311448 311448 311448
       248 311450 311450 311450 311450
       249 311460 311460 311460 311460
       250 311461 311461 311461 311461
       251 311462 311462 311462 311462
       252 311469 311469 311469 311469
       253 311473 311473 311473 311473
       254 311476 311476 311476 311476
       255 311481 311481 311481 311481
       256 311485 311485 311485 311485
       257 311488 311488 311488 311488
       258 311491 311491 311491 311491
       259 311500 311500 311500 311500
       260 311501 311501 311501 311501
       261 311502 311502 311502 311502
       262 311508 311508 311508 311508
       263 311512 311512 311512 311512
       264 311515 311515 311515 311515
       265 311518 311518 311518 311518
       266 311521 311521 311521 311521
       267 311528 311528 311528 311528
       268 311531 311531 311531 311531
       269 311540 311540 311540 311540
       270 311541 311541 311541 311541
       271 311542 311542 311542 311542
       272 311545 311545 311545 311545
       273 311549 311549 311549 311549
       274 311553 311553 311553 311553
       275 311556 311556 311556 311556
       276 311558 311558 311558 311558
       277 311559 311559 311559 311559
       278 311562 311562 311562 311562
       279 311564 311564 311564 311564
       280 311570 311570 311570 311570
       281 311573 311573 311573 311573
       282 311582 311582 311582 311582
       283 311583 311583 311583 311583
       284 311584 311584 311584 311584
       285 311587 311587 311587 311587
       286 311591 311591 311591 311591
       287 311595 311595 311595 311595
       288 311598 311598 311598 311598
       289 311601 311601 311601 311601
       290 311604 311604 311604 311604
       291 311609 311609 311609 311609
       292 311612 311612 311612 311612
       293 311621 311621 311621 311621
       294 311622 311622 311622 311622
       295 311623 311623 311623 311623
       296 311626 311626 311626 311626
       297 311630 311630 311630 311630
       298 311634 311634 311634 311634
       299 311637 311637 311637 311637
       300 311641 311641 311641 311641
       301 311649 311649 311649 311649
       302 311652 311652 311652 311652
       303 311661 311661 311661 311661
       304 311662 311662 311662 311662
       305 311663 311663 311663 311663
       306 311666 311666 311666 311666
       307 311670 311670 311670 311670
       308 311674 311674 311674 311674
       309 311677 311677 311677 311677
       310 311680 311680 311680 311680
       311 311688 311688 311688 311688
       312 311691 311691 311691 311691
       313 311700 311700 311700 311700
       314 311701 311701 311701 311701
       315 311702 311702 311702 311702
       316 311705 311705 311705 311705
       317 311709 311709 311709 311709
       318 311713 311713 311713 311713
       319 311716 311716 311716 311716
       320 311718 311718 311718 311718
       321 311720 311720 311720 311720
       322 311729 311729 311729 311729
       323 311731 311731 311731 311731
       324 311740 311740 311740 311740
       325 311741 311741 311741 311741
       326 311742 311742 311742 311742
       327 311745 311745 311745 311745
       328 311749 311749 311749 311749
       329 311753 311753 311753 311753
       330 311756 311756 311756 311756
       331 311760 311760 311760 311760
       332 311762 311762 311762 311762
       333 311766 311766 311766 311766
       334 311769 311769 311769 311769
       335 311781 311781 311781 311781
       336 311782 311782 311782 311782
       337 311785 311785 311785 311785
       338 311789 311789 311789 311789
       339 311793 311793 311793 311793
       340 311796 311796 311796 311796
       341 311799 311799 311799 311799
       342 311801 311801 311801 311801
       343 311808 311808 311808 311808
       344 311810 311810 311810 311810
       345 311819 311819 311819 311819
       346 311820 311820 311820 311820
       347 311821 311821 311821 311821
       348 311824 311824 311824 311824
       349 311828 311828 311828 311828
       350 311832 311832 311832 311832
       351 311835 311835 311835 311835
       352 311837 311837 311837 311837
       353 311846 311846 311846 311846
       354 311847 311847 311847 311847
       355 311848 311848 311848 311848
       356 311856 311856 311856 311856
       357 311857 311857 311857 311857
       358 311858 311858 311858 311858
       359 311865 311865 311865 311865
       360 311869 311869 311869 311869
       361 311872 311872 311872 311872
       362 311876 311876 311876 311876
       363 311882 311882 311882 311882
       364 311883 311883 311883 311883
       365 311885 311885 311885 311885
       366 311894 311894 311894 311894
       367 311895 311895 311895 311895
       368 311896 311896 311896 311896
       369 311903 311903 311903 311903
       370 311907 311907 311907 311907
       371 311910 311910 311910 311910
       372 311913 311913 311913 311913
       373 311914 311914 311914 311914
       374 311915 311915 311915 311915
       375 311921 311921 311921 311921
       376 311922 311922 311922 311922
       377 311924 311924 311924 311924
       378 311933 311933 311933 311933
       379 311934 311934 311934 311934
       380 311935 311935 311935 311935
       381 311942 311942 311942 311942
       382 311946 311946 311946 311946
       383 311949 311949 311949 311949
       384 311952 311952 311952 311952
       385 311958 311958 311958 311958
       386 311960 311960 311960 311960
       387 311961 311961 311961 311961
       388 311970 311970 311970 311970
       389 311971 311971 311971 311971
       390 311972 311972 311972 311972
       391 311979 311979 311979 311979
       392 311983 311983 311983 311983
       393 311986 311986 311986 311986
       394 311990 311990 311990 311990
       395 311997 311997 311997 311997
       396 311998 311998 311998 311998
       397 312007 312007 312007 312007
       398 312008 312008 312008 312008
       399 312009 312009 312009 312009
       400 312016 312016 312016 312016
       401 312020 312020 312020 312020
       402 312023 312023 312023 312023
       403 312027 312027 312027 312027
       404 312035 312035 312035 312035
       405 312036 312036 312036 312036
       406 312045 312045 312045 312045
       407 312046 312046 312046 312046
       408 312047 312047 312047 312047
       409 312054 312054 312054 312054
       410 312058 312058 312058 312058
       411 312061 312061 312061 312061
       412 312065 312065 312065 312065
       413 312073 312073 312073 312073
       414 312074 312074 312074 312074
       415 312082 312082 312082 312082
       416 312083 312083 312083 312083
       417 312084 312084 312084 312084
       418 312091 312091 312091 312091
       419 312095 312095 312095 312095
       420 312098 312098 312098 312098
       421 312101 312101 312101 312101
       422 312109 312109 312109 312109
       423 312110 312110 312110 312110
       424 312114 312114 312114 312114
       425 312119 312119 312119 312119
       426 312120 312120 312120 312120
       427 312121 312121 312121 312121
       428 312128 312128 312128 312128
       429 312132 312132 312132 312132
       430 312135 312135 312135 312135
       431 312138 312138 312138 312138
       432 312146 312146 312146 312146
       433 312147 312147 312147 312147
       434 312151 312151 312151 312151
       435 312156 312156 312156 312156
       436 312157 312157 312157 312157
       437 312158 312158 312158 312158
       438 312165 312165 312165 312165
       439 312169 312169 312169 312169
       440 312172 312172 312172 312172
       441 312174 312174 312174 312174
       442 312175 312175 312175 312175
       443 312183 312183 312183 312183
       444 312187 312187 312187 312187
       445 312192 312192 312192 312192
       446 312193 312193 312193 312193
       447 312194 312194 312194 312194
       448 312201 312201 312201 312201
       449 312205 312205 312205 312205
       450 312208 312208 312208 312208
       451 312210 312210 312210 312210
       452 312218 312218 312218 312218
       453 312219 312219 312219 312219
       454 312223 312223 312223 312223
       455 312228 312228 312228 312228
       456 312229 312229 312229 312229
       457 312230 312230 312230 312230
       458 312237 312237 312237 312237
       459 312241 312241 312241 312241
       460 312244 312244 312244 312244
       461 312246 312246 312246 312246
       462 312255 312255 312255 312255
       463 312258 312258 312258 312258
       464 312262 312262 312262 312262
       465 312263 312263 312263 312263
       466 312264 312264 312264 312264
       467 312271 312271 312271 312271
       468 312275 312275 312275 312275
       469 312278 312278 312278 312278
       470 312280 312280 312280 312280
       471 312289 312289 312289 312289
       472 312292 312292 312292 312292
       473 312293 312293 312293 312293
       474 312297 312297 312297 312297
       475 312298 312298 312298 312298
       476 312299 312299 312299 312299
       477 312306 312306 312306 312306
       478 312310 312310 312310 312310
       479 312313 312313 312313 312313
       480 312315 312315 312315 312315
       481 312324 312324 312324 312324
       482 312328 312328 312328 312328
       483 312329 312329 312329 312329
       484 312333 312333 312333 312333
       485 312334 312334 312334 312334
       486 312335 312335 312335 312335
       487 312342 312342 312342 312342
       488 312346 312346 312346 312346
       489 312349 312349 312349 312349
       490 312352 312352 312352 312352
       491 312361 312361 312361 312361
       492 312365 312365 312365 312365
       493 312366 312366 312366 312366
       494 312370 312370 312370 312370
       495 312371 312371 312371 312371
       496 312372 312372 312372 312372
       497 312379 312379 312379 312379
       498 312383 312383 312383 312383
       499 312386 312386 312386 312386
       500 312388 312388 312388 312388
       501 312397 312397 312397 312397
       502 312401 312401 312401 312401
       503 312402 312402 312402 312402
       504 312406 312406 312406 312406
       505 312407 312407 312407 312407
       506 312408 312408 312408 312408
       507 312415 312415 312415 312415
       508 312419 312419 312419 312419
       509 312422 312422 312422 312422
       510 312433 312433 312433 312433
       511 312436 312436 312436 312436
       512 312437 312437 312437 312437
       513 312441 312441 312441 312441
       514 312442 312442 312442 312442
       515 312443 312443 312443 312443
       516 312450 312450 312450 312450
       517 312454 312454 312454 312454
       518 312457 312457 312457 312457
       519 312459 312459 312459 312459
       520 312468 312468 312468 312468
       521 312472 312472 312472 312472
       522 312473 312473 312473 312473
       523 312477 312477 312477 312477
       524 312478 312478 312478 312478
       525 312479 312479 312479 312479
       526 312486 312486 312486 312486
       527 312490 312490 312490 312490
       528 312493 312493 312493 312493
       529 312497 312497 312497 312497
       530 312505 312505 312505 312505
       531 312509 312509 312509 312509
       532 312510 312510 312510 312510
       533 312514 312514 312514 312514
       534 312515 312515 312515 312515
       535 312516 312516 312516 312516
       536 312523 312523 312523 312523
       537 312527 312527 312527 312527
       538 312530 312530 312530 312530
       539 312532 312532 312532 312532
       540 312534 312534 312534 312534
       541 312543 312543 312543 312543
       542 312547 312547 312547 312547
       543 312548 312548 312548 312548
       544 312552 312552 312552 312552
       545 312553 312553 312553 312553
       546 312560 312560 312560 312560
       547 312564 312564 312564 312564
       548 312567 312567 312567 312567
       549 312569 312569 312569 312569
       550 312571 312571 312571 312571
       551 312580 312580 312580 312580
       552 312584 312584 312584 312584
       553 312585 312585 312585 312585
       554 312589 312589 312589 312589
       555 312591 312591 312591 312591
       556 312598 312598 312598 312598
       557 312602 312602 312602 312602
       558 312605 312605 312605 312605
       559 312609 312609 312609 312609
       560 312610 312610 312610 312610
       561 312618 312618 312618 312618
       562 312622 312622 312622 312622
       563 312623 312623 312623 312623
       564 312627 312627 312627 312627
       565 312629 312629 312629 312629
       566 312636 312636 312636 312636
       567 312640 312640 312640 312640
       568 312643 312643 312643 312643
       569 312654 312654 312654 312654
       570 312658 312658 312658 312658
       571 312659 312659 312659 312659
       572 312663 312663 312663 312663
       573 312665 312665 312665 312665
       574 312672 312672 312672 312672
       575 312676 312676 312676 312676
       576 312680 312680 312680 312680
       577 312690 312690 312690 312690
       578 312694 312694 312694 312694
       579 312695 312695 312695 312695
       580 312699 312699 312699 312699
       581 312701 312701 312701 312701
       582 312708 312708 312708 312708
       583 312712 312712 312712 312712
       584 312724 312724 312724 312724
       585 312728 312728 312728 312728
       586 312729 312729 312729 312729
       587 312733 312733 312733 312733
       588 312735 312735 312735 312735
       589 312742 312742 312742 312742
       590 312746 312746 312746 312746
       591 312757 312757 312757 312757
       592 312762 312762 312762 312762
       593 312765 312765 312765 312765
       594 312766 312766 312766 312766
       595 312768 312768 312768 312768
       596 312775 312775 312775 312775
       597 312779 312779 312779 312779
       598 312791 312791 312791 312791
       599 312795 312795 312795 312795
       600 312796 312796 312796 312796
       601 312800 312800 312800 312800
       602 312802 312802 312802 312802
       603 312809 312809 312809 312809
       604 312813 312813 312813 312813
       605 312816 312816 312816 312816
       606 312818 312818 312818 312818
       607 312827 312827 312827 312827
       608 312831 312831 312831 312831
       609 312832 312832 312832 312832
       610 312836 312836 312836 312836
       611 312845 312845 312845 312845
       612 312849 312849 312849 312849
       613 312852 312852 312852 312852
       614 312854 312854 312854 312854
       615 312864 312864 312864 312864
       616 312867 312867 312867 312867
       617 312871 312871 312871 312871
       618 312880 312880 312880 312880
       619 312884 312884 312884 312884
       620 312887 312887 312887 312887
       621 312901 312901 312901 312901
       622 312905 312905 312905 312905
       623 312909 312909 312909 312909
       624 312918 312918 312918 312918
       625 312922 312922 312922 312922
       626 312925 312925 312925 312925
       627 312937 312937 312937 312937
       628 312942 312942 312942 312942
       629 312945 312945 312945 312945
       630 312954 312954 312954 312954
       631 312958 312958 312958 312958
       632 312961 312961 312961 312961
       633 312972 312972 312972 312972
       634 312976 312976 312976 312976
       635 312981 312981 312981 312981
       636 312990 312990 312990 312990
       637 312994 312994 312994 312994
       638 312997 312997 312997 312997
       639 313009 313009 313009 313009
       640 313013 313013 313013 313013
       641 313017 313017 313017 313017
       642 313026 313026 313026 313026
       643 313030 313030 313030 313030
       644 313033 313033 313033 313033
       645 313047 313047 313047 313047
       646 313051 313051 313051 313051
       647 313056 313056 313056 313056
       648 313065 313065 313065 313065
       649 313069 313069 313069 313069
       650 313072 313072 313072 313072
       651 313085 313085 313085 313085
       652 313089 313089 313089 313089
       653 313094 313094 313094 313094
       654 313098 313098 313098 313098
       655 313107 313107 313107 313107
       656 313110 313110 313110 313110
       657 313112 313112 313112 313112
       658 313122 313122 313122 313122
       659 313126 313126 313126 313126
       660 313131 313131 313131 313131
       661 313140 313140 313140 313140
       662 313144 313144 313144 313144
       663 313147 313147 313147 313147
       664 313151 313151 313151 313151
       665 313164 313164 313164 313164
       666 313169 313169 313169 313169
       667 313178 313178 313178 313178
       668 313182 313182 313182 313182
       669 313185 313185 313185 313185
       670 313199 313199 313199 313199
       671 313204 313204 313204 313204
       672 313213 313213 313213 313213
       673 313217 313217 313217 313217
       674 313220 313220 313220 313220
       675 313222 313222 313222 313222
       676 313223 313223 313223 313223
       677 313236 313236 313236 313236
       678 313241 313241 313241 313241
       679 313250 313250 313250 313250
       680 313254 313254 313254 313254
       681 313257 313257 313257 313257
       682 313277 313277 313277 313277
       683 313286 313286 313286 313286
       684 313290 313290 313290 313290
       685 313293 313293 313293 313293
       686 313307 313307 313307 313307
       687 313312 313312 313312 313312
       688 313321 313321 313321 313321
       689 313325 313325 313325 313325
       690 313328 313328 313328 313328
       691 313331 313331 313331 313331
       692 313332 313332 313332 313332
       693 313333 313333 313333 313333
       694 313346 313346 313346 313346
       695 313351 313351 313351 313351
       696 313360 313360 313360 313360
       697 313364 313364 313364 313364
       698 313367 313367 313367 313367
       699 313369 313369 313369 313369
       700 313383 313383 313383 313383
       701 313388 313388 313388 313388
       702 313397 313397 313397 313397
       703 313400 313400 313400 313400
       704 313403 313403 313403 313403
       705 313405 313405 313405 313405
       706 313418 313418 313418 313418
       707 313423 313423 313423 313423
       708 313432 313432 313432 313432
       709 313436 313436 313436 313436
       710 313439 313439 313439 313439
       711 313450 313450 313450 313450
       712 313454 313454 313454 313454
       713 313459 313459 313459 313459
       714 313468 313468 313468 313468
       715 313472 313472 313472 313472
       716 313475 313475 313475 313475
       717 313478 313478 313478 313478
       718 313487 313487 313487 313487
       719 313490 313490 313490 313490
       720 313496 313496 313496 313496
       721 313505 313505 313505 313505
       722 313509 313509 313509 313509
       723 313512 313512 313512 313512
       724 313518 313518 313518 313518
       725 313526 313526 313526 313526
       726 313528 313528 313528 313528
       727 313536 313536 313536 313536
       728 313541 313541 313541 313541
       729 313545 313545 313545 313545
       730 313549 313549 313549 313549
       731 313552 313552 313552 313552
       732 313554 313554 313554 313554
       733 313555 313555 313555 313555
       734 313563 313563 313563 313563
       735 313565 313565 313565 313565
       736 313573 313573 313573 313573
       737 313578 313578 313578 313578
       738 313582 313582 313582 313582
       739 313586 313586 313586 313586
       740 313589 313589 313589 313589
       741 313598 313598 313598 313598
       742 313600 313600 313600 313600
       743 313608 313608 313608 313608
       744 313613 313613 313613 313613
       745 313617 313617 313617 313617
       746 313621 313621 313621 313621
       747 313624 313624 313624 313624
       748 313627 313627 313627 313627
       749 313628 313628 313628 313628
       750 313636 313636 313636 313636
       751 313638 313638 313638 313638
       752 313645 313645 313645 313645
       753 313650 313650 313650 313650
       754 313654 313654 313654 313654
       755 313658 313658 313658 313658
       756 313661 313661 313661 313661
       757 313664 313664 313664 313664
       758 313673 313673 313673 313673
       759 313676 313676 313676 313676
       760 313687 313687 313687 313687
       761 313691 313691 313691 313691
       762 313695 313695 313695 313695
       763 313698 313698 313698 313698
       764 313708 313708 313708 313708
       765 313709 313709 313709 313709
       766 313722 313722 313722 313722
       767 313726 313726 313726 313726
       768 313730 313730 313730 313730
       769 313733 313733 313733 313733
       770 313738 313738 313738 313738
       771 313746 313746 313746 313746
       772 313749 313749 313749 313749
       773 313761 313761 313761 313761
       774 313765 313765 313765 313765
       775 313769 313769 313769 313769
       776 313772 313772 313772 313772
       777 313776 313776 313776 313776
       778 313777 313777 313777 313777
       779 313784 313784 313784 313784
       780 313787 313787 313787 313787
       781 313798 313798 313798 313798
       782 313802 313802 313802 313802
       783 313806 313806 313806 313806
       784 313809 313809 313809 313809
       785 313813 313813 313813 313813
       786 313820 313820 313820 313820
       787 313823 313823 313823 313823
       788 313834 313834 313834 313834
       789 313838 313838 313838 313838
       790 313842 313842 313842 313842
       791 313845 313845 313845 313845
       792 313851 313851 313851 313851
       793 313857 313857 313857 313857
       794 313860 313860 313860 313860
       795 313871 313871 313871 313871
       796 313875 313875 313875 313875
       797 313879 313879 313879 313879
       798 313882 313882 313882 313882
       799 313884 313884 313884 313884
       800 313887 313887 313887 313887
       801 313888 313888 313888 313888
       802 313894 313894 313894 313894
       803 313897 313897 313897 313897
       804 313909 313909 313909 313909
       805 313913 313913 313913 313913
       806 313917 313917 313917 313917
       807 313920 313920 313920 313920
       808 313923 313923 313923 313923
       809 313924 313924 313924 313924
       810 313931 313931 313931 313931
       811 313934 313934 313934 313934
       812 313945 313945 313945 313945
       813 313949 313949 313949 313949
       814 313953 313953 313953 313953
       815 313956 313956 313956 313956
       816 313959 313959 313959 313959
       817 313961 313961 313961 313961
       818 313969 313969 313969 313969
       819 313981 313981 313981 313981
       820 313984 313984 313984 313984
       821 313988 313988 313988 313988
       822 313991 313991 313991 313991
       823 313993 313993 313993 313993
       824 313996 313996 313996 313996
       825 313999 313999 313999 313999
       826 314006 314006 314006 314006
       827 314018 314018 314018 314018
       828 314021 314021 314021 314021
       829 314022 314022 314022 314022
       830 314025 314025 314025 314025
       831 314028 314028 314028 314028
       832 314031 314031 314031 314031
       833 314032 314032 314032 314032
       834 314035 314035 314035 314035
       835 314037 314037 314037 314037
       836 314045 314045 314045 314045
       837 314057 314057 314057 314057
       838 314060 314060 314060 314060
       839 314061 314061 314061 314061
       840 314065 314065 314065 314065
       841 314068 314068 314068 314068
       842 314070 314070 314070 314070
       843 314072 314072 314072 314072
       844 314073 314073 314073 314073
       845 314074 314074 314074 314074
       846 314077 314077 314077 314077
       847 314084 314084 314084 314084
       848 314095 314095 314095 314095
       849 314098 314098 314098 314098
       850 314099 314099 314099 314099
       851 314103 314103 314103 314103
       852 314106 314106 314106 314106
       853 314109 314109 314109 314109
       854 314110 314110 314110 314110
       855 314114 314114 314114 314114
       856 314120 314120 314120 314120
       857 314132 314132 314132 314132
       858 314135 314135 314135 314135
       859 314136 314136 314136 314136
       860 314140 314140 314140 314140
       861 314143 314143 314143 314143
       862 314147 314147 314147 314147
       863 314148 314148 314148 314148
       864 314150 314150 314150 314150
       865 314158 314158 314158 314158
       866 314170 314170 314170 314170
       867 314173 314173 314173 314173
       868 314174 314174 314174 314174
       869 314178 314178 314178 314178
       870 314181 314181 314181 314181
       871 314185 314185 314185 314185
       872 314189 314189 314189 314189
       873 314195 314195 314195 314195
       874 314207 314207 314207 314207
       875 314210 314210 314210 314210
       876 314211 314211 314211 314211
       877 314215 314215 314215 314215
       878 314218 314218 314218 314218
       879 314220 314220 314220 314220
       880 314222 314222 314222 314222
       881 314225 314225 314225 314225
       882 314232 314232 314232 314232
       883 314237 314237 314237 314237
       884 314244 314244 314244 314244
       885 314247 314247 314247 314247
       886 314248 314248 314248 314248
       887 314252 314252 314252 314252
       888 314255 314255 314255 314255
       889 314260 314260 314260 314260
       890 314261 314261 314261 314261
       891 314265 314265 314265 314265
       892 314270 314270 314270 314270
       893 314275 314275 314275 314275
       894 314282 314282 314282 314282
       895 314285 314285 314285 314285
       896 314286 314286 314286 314286
       897 314290 314290 314290 314290
       898 314293 314293 314293 314293
       899 314297 314297 314297 314297
       900 314298 314298 314298 314298
       901 314301 314301 314301 314301
       902 314308 314308 314308 314308
       903 314313 314313 314313 314313
       904 314320 314320 314320 314320
       905 314323 314323 314323 314323
       906 314324 314324 314324 314324
       907 314328 314328 314328 314328
       908 314331 314331 314331 314331
       909 314333 314333 314333 314333
       910 314335 314335 314335 314335
       911 314338 314338 314338 314338
       912 314341 314341 314341 314341
       913 314348 314348 314348 314348
       914 314353 314353 314353 314353
       915 314360 314360 314360 314360
       916 314363 314363 314363 314363
       917 314364 314364 314364 314364
       918 314368 314368 314368 314368
       919 314371 314371 314371 314371
       920 314373 314373 314373 314373
       921 314376 314376 314376 314376
       922 314378 314378 314378 314378
       923 314385 314385 314385 314385
       924 314390 314390 314390 314390
       925 314397 314397 314397 314397
       926 314400 314400 314400 314400
       927 314401 314401 314401 314401
       928 314405 314405 314405 314405
       929 314408 314408 314408 314408
       930 314414 314414 314414 314414
       931 314415 314415 314415 314415
       932 314419 314419 314419 314419
       933 314425 314425 314425 314425
       934 314430 314430 314430 314430
       935 314437 314437 314437 314437
       936 314440 314440 314440 314440
       937 314441 314441 314441 314441
       938 314445 314445 314445 314445
       939 314448 314448 314448 314448
       940 314452 314452 314452 314452
       941 314453 314453 314453 314453
       942 314456 314456 314456 314456
       943 314463 314463 314463 314463
       944 314468 314468 314468 314468
       945 314475 314475 314475 314475
       946 314478 314478 314478 314478
       947 314479 314479 314479 314479
       948 314483 314483 314483 314483
       949 314486 314486 314486 314486
       950 314493 314493 314493 314493
       951 314496 314496 314496 314496
       952 314503 314503 314503 314503
       953 314508 314508 314508 314508
       954 314515 314515 314515 314515
       955 314518 314518 314518 314518
       956 314519 314519 314519 314519
       957 314523 314523 314523 314523
       958 314526 314526 314526 314526
       959 314530 314530 314530 314530
       960 314531 314531 314531 314531
       961 314534 314534 314534 314534
       962 314541 314541 314541 314541
       963 314546 314546 314546 314546
       964 314553 314553 314553 314553
       965 314556 314556 314556 314556
       966 314557 314557 314557 314557
       967 314561 314561 314561 314561
       968 314563 314563 314563 314563
       969 314570 314570 314570 314570
       970 314573 314573 314573 314573
       971 314580 314580 314580 314580
       972 314585 314585 314585 314585
       973 314592 314592 314592 314592
       974 314595 314595 314595 314595
       975 314596 314596 314596 314596
       976 314600 314600 314600 314600
       977 314602 314602 314602 314602
       978 314606 314606 314606 314606
       979 314609 314609 314609 314609
       980 314616 314616 314616 314616
       981 314621 314621 314621 314621
       982 314628 314628 314628 314628
       983 314631 314631 314631 314631
       984 314632 314632 314632 314632
       985 314636 314636 314636 314636
       986 314638 314638 314638 314638
       987 314643 314643 314643 314643
       988 314644 314644 314644 314644
       989 314651 314651 314651 314651
       990 314656 314656 314656 314656
       991 314663 314663 314663 314663
       992 314666 314666 314666 314666
       993 314667 314667 314667 314667
       994 314673 314673 314673 314673
       995 314675 314675 314675 314675
       996 314677 314677 314677 314677
       997 314678 314678 314678 314678
       998 314679 314679 314679 314679
       999 314681 314681 314681 314681
       1000 314684 314684 314684 314684
       1001 314695 314695 314695 314695
       1002 314702 314702 314702 314702
       1003 314705 314705 314705 314705
       1004 314706 314706 314706 314706
       1005 314713 314713 314713 314713
       1006 314717 314717 314717 314717
       1007 314721 314721 314721 314721
       1008 314722 314722 314722 314722
       1009 314729 314729 314729 314729
       1010 314734 314734 314734 314734
       1011 314741 314741 314741 314741
       1012 314744 314744 314744 314744
       1013 314745 314745 314745 314745
       1014 314752 314752 314752 314752
       1015 314754 314754 314754 314754
       1016 314757 314757 314757 314757
       1017 314761 314761 314761 314761
       1018 314764 314764 314764 314764
       1019 314771 314771 314771 314771
       1020 314776 314776 314776 314776
       1021 314783 314783 314783 314783
       1022 314786 314786 314786 314786
       1023 314787 314787 314787 314787
       1024 314794 314794 314794 314794
       1025 314798 314798 314798 314798
       1026 314800 314800 314800 314800
       1027 314804 314804 314804 314804
       1028 314811 314811 314811 314811
       1029 314816 314816 314816 314816
       1030 314823 314823 314823 314823
       1031 314826 314826 314826 314826
       1032 314827 314827 314827 314827
       1033 314834 314834 314834 314834
       1034 314836 314836 314836 314836
       1035 314840 314840 314840 314840
       1036 314844 314844 314844 314844
       1037 314851 314851 314851 314851
       1038 314855 314855 314855 314855
       1039 314856 314856 314856 314856
       1040 314863 314863 314863 314863
       1041 314866 314866 314866 314866
       1042 314867 314867 314867 314867
       1043 314874 314874 314874 314874
       1044 314877 314877 314877 314877
       1045 314878 314878 314878 314878
       1046 314881 314881 314881 314881
       1047 314883 314883 314883 314883
       1048 314886 314886 314886 314886
       1049 314893 314893 314893 314893
       1050 314897 314897 314897 314897
       1051 314898 314898 314898 314898
       1052 314905 314905 314905 314905
       1053 314908 314908 314908 314908
       1054 314909 314909 314909 314909
       1055 314916 314916 314916 314916
       1056 314919 314919 314919 314919
       1057 314920 314920 314920 314920
       1058 314924 314924 314924 314924
       1059 314925 314925 314925 314925
       1060 314928 314928 314928 314928
       1061 314935 314935 314935 314935
       1062 314939 314939 314939 314939
       1063 314940 314940 314940 314940
       1064 314947 314947 314947 314947
       1065 314948 314948 314948 314948
       1066 314950 314950 314950 314950
       1067 314951 314951 314951 314951
       1068 314958 314958 314958 314958
       1069 314960 314960 314960 314960
       1070 314964 314964 314964 314964
       1071 314967 314967 314967 314967
       1072 314974 314974 314974 314974
       1073 314978 314978 314978 314978
       1074 314979 314979 314979 314979
       1075 314986 314986 314986 314986
       1076 314988 314988 314988 314988
       1077 314989 314989 314989 314989
       1078 314996 314996 314996 314996
       1079 315001 315001 315001 315001
       1080 315002 315002 315002 315002
       1081 315004 315004 315004 315004
       1082 315008 315008 315008 315008
       1083 315015 315015 315015 315015
       1084 315020 315020 315020 315020
       1085 315022 315022 315022 315022
       1086 315024 315024 315024 315024
       1087 315027 315027 315027 315027
       1088 315030 315030 315030 315030
       1089 315031 315031 315031 315031
       1090 315038 315038 315038 315038
       1091 315040 315040 315040 315040
       1092 315043 315043 315043 315043
       1093 315050 315050 315050 315050
       1094 315060 315060 315060 315060
       1095 315061 315061 315061 315061
       1096 315065 315065 315065 315065
       1097 315068 315068 315068 315068
       1098 315071 315071 315071 315071
       1099 315072 315072 315072 315072
       1100 315079 315079 315079 315079
       1101 315081 315081 315081 315081
       1102 315083 315083 315083 315083
       1103 315084 315084 315084 315084
       1104 315096 315096 315096 315096
       1105 315099 315099 315099 315099
       1106 315100 315100 315100 315100
       1107 315101 315101 315101 315101
       1108 315105 315105 315105 315105
       1109 315108 315108 315108 315108
       1110 315111 315111 315111 315111
       1111 315112 315112 315112 315112
       1112 315119 315119 315119 315119
       1113 315121 315121 315121 315121
       1114 315133 315133 315133 315133
       1115 315135 315135 315135 315135
       1116 315138 315138 315138 315138
       1117 315140 315140 315140 315140
       1118 315142 315142 315142 315142
       1119 315145 315145 315145 315145
       1120 315148 315148 315148 315148
       1121 315149 315149 315149 315149
       1122 315152 315152 315152 315152
       1123 315156 315156 315156 315156
       1124 315171 315171 315171 315171
       1125 315172 315172 315172 315172
       1126 315175 315175 315175 315175
       1127 315176 315176 315176 315176
       1128 315177 315177 315177 315177
       1129 315181 315181 315181 315181
       1130 315184 315184 315184 315184
       1131 315187 315187 315187 315187
       1132 315188 315188 315188 315188
       1133 315191 315191 315191 315191
       1134 315195 315195 315195 315195
       1135 315201 315201 315201 315201
       1136 315209 315209 315209 315209
       1137 315210 315210 315210 315210
       1138 315211 315211 315211 315211
       1139 315214 315214 315214 315214
       1140 315215 315215 315215 315215
       1141 315219 315219 315219 315219
       1142 315222 315222 315222 315222
       1143 315225 315225 315225 315225
       1144 315226 315226 315226 315226
       1145 315229 315229 315229 315229
       1146 315233 315233 315233 315233
       1147 315237 315237 315237 315237
       1148 315240 315240 315240 315240
       1149 315247 315247 315247 315247
       1150 315248 315248 315248 315248
       1151 315251 315251 315251 315251
       1152 315252 315252 315252 315252
       1153 315253 315253 315253 315253
       1154 315257 315257 315257 315257
       1155 315260 315260 315260 315260
       1156 315263 315263 315263 315263
       1157 315264 315264 315264 315264
       1158 315267 315267 315267 315267
       1159 315271 315271 315271 315271
       1160 315276 315276 315276 315276
       1161 315277 315277 315277 315277
       1162 315284 315284 315284 315284
       1163 315285 315285 315285 315285
       1164 315288 315288 315288 315288
       1165 315289 315289 315289 315289
       1166 315290 315290 315290 315290
       1167 315294 315294 315294 315294
       1168 315297 315297 315297 315297
       1169 315300 315300 315300 315300
       1170 315301 315301 315301 315301
       1171 315304 315304 315304 315304
       1172 315308 315308 315308 315308
       1173 315310 315310 315310 315310
       1174 315313 315313 315313 315313
       1175 315315 315315 315315 315315
       1176 315318 315318 315318 315318
       1177 315323 315323 315323 315323
       1178 315324 315324 315324 315324
       1179 315327 315327 315327 315327
       1180 315328 315328 315328 315328
       1181 315329 315329 315329 315329
       1182 315333 315333 315333 315333
       1183 315336 315336 315336 315336
       1184 315339 315339 315339 315339
       1185 315340 315340 315340 315340
       1186 315343 315343 315343 315343
       1187 315347 315347 315347 315347
       1188 315349 315349 315349 315349
       1189 315353 315353 315353 315353
       1190 315356 315356 315356 315356
       1191 315358 315358 315358 315358
       1192 315360 315360 315360 315360
       1193 315366 315366 315366 315366
       1194 315367 315367 315367 315367
       1195 315370 315370 315370 315370
       1196 315371 315371 315371 315371
       1197 315372 315372 315372 315372
       1198 315376 315376 315376 315376
       1199 315379 315379 315379 315379
       1200 315382 315382 315382 315382
       1201 315383 315383 315383 315383
       1202 315386 315386 315386 315386
       1203 315390 315390 315390 315390
       1204 315392 315392 315392 315392
       1205 315395 315395 315395 315395
       1206 315397 315397 315397 315397
       1207 315399 315399 315399 315399
       1208 315405 315405 315405 315405
       1209 315407 315407 315407 315407
       1210 315409 315409 315409 315409
       1211 315410 315410 315410 315410
       1212 315411 315411 315411 315411
       1213 315414 315414 315414 315414
       1214 315417 315417 315417 315417
       1215 315420 315420 315420 315420
       1216 315421 315421 315421 315421
       1217 315424 315424 315424 315424
       1218 315428 315428 315428 315428
       1219 315434 315434 315434 315434
       1220 315436 315436 315436 315436
       1221 315442 315442 315442 315442
       1222 315443 315443 315443 315443
       1223 315444 315444 315444 315444
       1224 315446 315446 315446 315446
       1225 315447 315447 315447 315447
       1226 315448 315448 315448 315448
       1227 315452 315452 315452 315452
       1228 315455 315455 315455 315455
       1229 315458 315458 315458 315458
       1230 315459 315459 315459 315459
       1231 315462 315462 315462 315462
       1232 315474 315474 315474 315474
       1233 315476 315476 315476 315476
       1234 315482 315482 315482 315482
       1235 315483 315483 315483 315483
       1236 315484 315484 315484 315484
       1237 315486 315486 315486 315486
       1238 315487 315487 315487 315487
       1239 315488 315488 315488 315488
       1240 315492 315492 315492 315492
       1241 315495 315495 315495 315495
       1242 315498 315498 315498 315498
       1243 315499 315499 315499 315499
       1244 315502 315502 315502 315502
       1245 315511 315511 315511 315511
       1246 315514 315514 315514 315514
       1247 315520 315520 315520 315520
       1248 315521 315521 315521 315521
       1249 315522 315522 315522 315522
       1250 315523 315523 315523 315523
       1251 315524 315524 315524 315524
       1252 315525 315525 315525 315525
       1253 315528 315528 315528 315528
       1254 315531 315531 315531 315531
       1255 315534 315534 315534 315534
       1256 315535 315535 315535 315535
       1257 315538 315538 315538 315538
       1258 315544 315544 315544 315544
       1259 315547 315547 315547 315547
       1260 315548 315548 315548 315548
       1261 315550 315550 315550 315550
       1262 315552 315552 315552 315552
       1263 315554 315554 315554 315554
       1264 315560 315560 315560 315560
       1265 315561 315561 315561 315561
       1266 315562 315562 315562 315562
       1267 315563 315563 315563 315563
       1268 315564 315564 315564 315564
       1269 315565 315565 315565 315565
       1270 315566 315566 315566 315566
       1271 315570 315570 315570 315570
       1272 315573 315573 315573 315573
       1273 315576 315576 315576 315576
       1274 315577 315577 315577 315577
       1275 315580 315580 315580 315580
       1276 315590 315590 315590 315590
       1277 315592 315592 315592 315592
       1278 315598 315598 315598 315598
       1279 315599 315599 315599 315599
       1280 315600 315600 315600 315600
       1281 315601 315601 315601 315601
       1282 315602 315602 315602 315602
       1283 315603 315603 315603 315603
       1284 315604 315604 315604 315604
       1285 315608 315608 315608 315608
       1286 315611 315611 315611 315611
       1287 315614 315614 315614 315614
       1288 315615 315615 315615 315615
       1289 315618 315618 315618 315618
       1290 315627 315627 315627 315627
       1291 315629 315629 315629 315629
       1292 315635 315635 315635 315635
       1293 315636 315636 315636 315636
       1294 315637 315637 315637 315637
       1295 315638 315638 315638 315638
       1296 315639 315639 315639 315639
       1297 315640 315640 315640 315640
       1298 315641 315641 315641 315641
       1299 315645 315645 315645 315645
       1300 315648 315648 315648 315648
       1301 315651 315651 315651 315651
       1302 315652 315652 315652 315652
       1303 315655 315655 315655 315655
       1304 315661 315661 315661 315661
       1305 315662 315662 315662 315662
       1306 315665 315665 315665 315665
       1307 315668 315668 315668 315668
       1308 315673 315673 315673 315673
       1309 315675 315675 315675 315675
       1310 315676 315676 315676 315676
       1311 315677 315677 315677 315677
       1312 315678 315678 315678 315678
       1313 315681 315681 315681 315681
       1314 315684 315684 315684 315684
       1315 315687 315687 315687 315687
       1316 315688 315688 315688 315688
       1317 315691 315691 315691 315691
       1318 315697 315697 315697 315697
       1319 315701 315701 315701 315701
       1320 315704 315704 315704 315704
       1321 315707 315707 315707 315707
       1322 315709 315709 315709 315709
       1323 315710 315710 315710 315710
       1324 315712 315712 315712 315712
       1325 315713 315713 315713 315713
       1326 315714 315714 315714 315714
       1327 315715 315715 315715 315715
       1328 315719 315719 315719 315719
       1329 315722 315722 315722 315722
       1330 315725 315725 315725 315725
       1331 315726 315726 315726 315726
       1332 315729 315729 315729 315729
       1333 315736 315736 315736 315736
       1334 315739 315739 315739 315739
       1335 315742 315742 315742 315742
       1336 315747 315747 315747 315747
       1337 315748 315748 315748 315748
       1338 315749 315749 315749 315749
       1339 315750 315750 315750 315750
       1340 315751 315751 315751 315751
       1341 315752 315752 315752 315752
       1342 315753 315753 315753 315753
       1343 315757 315757 315757 315757
       1344 315760 315760 315760 315760
       1345 315763 315763 315763 315763
       1346 315764 315764 315764 315764
       1347 315767 315767 315767 315767
       1348 315773 315773 315773 315773
       1349 315774 315774 315774 315774
       1350 315777 315777 315777 315777
       1351 315780 315780 315780 315780
       1352 315785 315785 315785 315785
       1353 315786 315786 315786 315786
       1354 315787 315787 315787 315787
       1355 315788 315788 315788 315788
       1356 315789 315789 315789 315789
       1357 315790 315790 315790 315790
       1358 315791 315791 315791 315791
       1359 315795 315795 315795 315795
       1360 315798 315798 315798 315798
       1361 315801 315801 315801 315801
       1362 315802 315802 315802 315802
       1363 315805 315805 315805 315805
       1364 315812 315812 315812 315812
       1365 315814 315814 315814 315814
       1366 315815 315815 315815 315815
       1367 315817 315817 315817 315817
       1368 315820 315820 315820 315820
       1369 315825 315825 315825 315825
       1370 315826 315826 315826 315826
       1371 315827 315827 315827 315827
       1372 315828 315828 315828 315828
       1373 315829 315829 315829 315829
       1374 315830 315830 315830 315830
       1375 315831 315831 315831 315831
       1376 315835 315835 315835 315835
       1377 315838 315838 315838 315838
       1378 315841 315841 315841 315841
       1379 315842 315842 315842 315842
       1380 315845 315845 315845 315845
       1381 315853 315853 315853 315853
       1382 315854 315854 315854 315854
       1383 315856 315856 315856 315856
       1384 315859 315859 315859 315859
       1385 315862 315862 315862 315862
       1386 315864 315864 315864 315864
       1387 315865 315865 315865 315865
       1388 315867 315867 315867 315867
       1389 315868 315868 315868 315868
       1390 315869 315869 315869 315869
       1391 315870 315870 315870 315870
       1392 315874 315874 315874 315874
       1393 315877 315877 315877 315877
       1394 315880 315880 315880 315880
       1395 315881 315881 315881 315881
       1396 315884 315884 315884 315884
       1397 315890 315890 315890 315890
       1398 315891 315891 315891 315891
       1399 315893 315893 315893 315893
       1400 315896 315896 315896 315896
       1401 315900 315900 315900 315900
       1402 315901 315901 315901 315901
       1403 315902 315902 315902 315902
       1404 315903 315903 315903 315903
       1405 315904 315904 315904 315904
       1406 315905 315905 315905 315905
       1407 315906 315906 315906 315906
       1408 315910 315910 315910 315910
       1409 315913 315913 315913 315913
       1410 315916 315916 315916 315916
       1411 315917 315917 315917 315917
       1412 315920 315920 315920 315920
       1413 315926 315926 315926 315926
       1414 315927 315927 315927 315927
       1415 315929 315929 315929 315929
       1416 315932 315932 315932 315932
       1417 315933 315933 315933 315933
       1418 315937 315937 315937 315937
       1419 315939 315939 315939 315939
       1420 315940 315940 315940 315940
       1421 315941 315941 315941 315941
       1422 315942 315942 315942 315942
       1423 315943 315943 315943 315943
       1424 315946 315946 315946 315946
       1425 315949 315949 315949 315949
       1426 315952 315952 315952 315952
       1427 315953 315953 315953 315953
       1428 315956 315956 315956 315956
       1429 315965 315965 315965 315965
       1430 315966 315966 315966 315966
       1431 315967 315967 315967 315967
       1432 315969 315969 315969 315969
       1433 315972 315972 315972 315972
       1434 315973 315973 315973 315973
       1435 315977 315977 315977 315977
       1436 315979 315979 315979 315979
       1437 315980 315980 315980 315980
       1438 315981 315981 315981 315981
       1439 315982 315982 315982 315982
       1440 315983 315983 315983 315983
       1441 315987 315987 315987 315987
       1442 315990 315990 315990 315990
       1443 315993 315993 315993 315993
       1444 315994 315994 315994 315994
       1445 315997 315997 315997 315997
       1446 316004 316004 316004 316004
       1447 316005 316005 316005 316005
       1448 316006 316006 316006 316006
       1449 316008 316008 316008 316008
       1450 316011 316011 316011 316011
       1451 316012 316012 316012 316012
       1452 316016 316016 316016 316016
       1453 316018 316018 316018 316018
       1454 316019 316019 316019 316019
       1455 316020 316020 316020 316020
       1456 316021 316021 316021 316021
       1457 316022 316022 316022 316022
       1458 316026 316026 316026 316026
       1459 316028 316028 316028 316028
       1460 316031 316031 316031 316031
       1461 316032 316032 316032 316032
       1462 316035 316035 316035 316035
       1463 316041 316041 316041 316041
       1464 316042 316042 316042 316042
       1465 316044 316044 316044 316044
       1466 316046 316046 316046 316046
       1467 316049 316049 316049 316049
       1468 316050 316050 316050 316050
       1469 316054 316054 316054 316054
       1470 316056 316056 316056 316056
       1471 316057 316057 316057 316057
       1472 316058 316058 316058 316058
       1473 316059 316059 316059 316059
       1474 316060 316060 316060 316060
       1475 316064 316064 316064 316064
       1476 316065 316065 316065 316065
       1477 316067 316067 316067 316067
       1478 316070 316070 316070 316070
       1479 316071 316071 316071 316071
       1480 316074 316074 316074 316074
       1481 316081 316081 316081 316081
       1482 316083 316083 316083 316083
       1483 316084 316084 316084 316084
       1484 316085 316085 316085 316085
       1485 316086 316086 316086 316086
       1486 316089 316089 316089 316089
       1487 316091 316091 316091 316091
       1488 316092 316092 316092 316092
       1489 316096 316096 316096 316096
       1490 316098 316098 316098 316098
       1491 316099 316099 316099 316099
       1492 316100 316100 316100 316100
       1493 316101 316101 316101 316101
       1494 316105 316105 316105 316105
       1495 316106 316106 316106 316106
       1496 316108 316108 316108 316108
       1497 316111 316111 316111 316111
       1498 316112 316112 316112 316112
       1499 316115 316115 316115 316115
       1500 316122 316122 316122 316122
       1501 316123 316123 316123 316123
       1502 316124 316124 316124 316124
       1503 316126 316126 316126 316126
       1504 316128 316128 316128 316128
       1505 316129 316129 316129 316129
       1506 316130 316130 316130 316130
       1507 316134 316134 316134 316134
       1508 316136 316136 316136 316136
       1509 316137 316137 316137 316137
       1510 316138 316138 316138 316138
       1511 316139 316139 316139 316139
       1512 316140 316140 316140 316140
       1513 316144 316144 316144 316144
       1514 316146 316146 316146 316146
       1515 316149 316149 316149 316149
       1516 316150 316150 316150 316150
       1517 316153 316153 316153 316153
       1518 316159 316159 316159 316159
       1519 316160 316160 316160 316160
       1520 316161 316161 316161 316161
       1521 316162 316162 316162 316162
       1522 316163 316163 316163 316163
       1523 316164 316164 316164 316164
       1524 316166 316166 316166 316166
       1525 316169 316169 316169 316169
       1526 316170 316170 316170 316170
       1527 316174 316174 316174 316174
       1528 316176 316176 316176 316176
       1529 316177 316177 316177 316177
       1530 316178 316178 316178 316178
       1531 316179 316179 316179 316179
       1532 316180 316180 316180 316180
       1533 316185 316185 316185 316185
       1534 316187 316187 316187 316187
       1535 316190 316190 316190 316190
       1536 316191 316191 316191 316191
       1537 316194 316194 316194 316194
       1538 316202 316202 316202 316202
       1539 316205 316205 316205 316205
       1540 316206 316206 316206 316206
       1541 316207 316207 316207 316207
       1542 316209 316209 316209 316209
       1543 316212 316212 316212 316212
       1544 316213 316213 316213 316213
       1545 316216 316216 316216 316216
       1546 316218 316218 316218 316218
       1547 316219 316219 316219 316219
       1548 316220 316220 316220 316220
       1549 316221 316221 316221 316221
       1550 316222 316222 316222 316222
       1551 316227 316227 316227 316227
       1552 316229 316229 316229 316229
       1553 316232 316232 316232 316232
       1554 316233 316233 316233 316233
       1555 316236 316236 316236 316236
       1556 316243 316243 316243 316243
       1557 316246 316246 316246 316246
       1558 316247 316247 316247 316247
       1559 316249 316249 316249 316249
       1560 316251 316251 316251 316251
       1561 316252 316252 316252 316252
       1562 316255 316255 316255 316255
       1563 316256 316256 316256 316256
       1564 316258 316258 316258 316258
       1565 316259 316259 316259 316259
       1566 316260 316260 316260 316260
       1567 316261 316261 316261 316261
       1568 316262 316262 316262 316262
       1569 316267 316267 316267 316267
       1570 316269 316269 316269 316269
       1571 316272 316272 316272 316272
       1572 316273 316273 316273 316273
       1573 316276 316276 316276 316276
       1574 316284 316284 316284 316284
       1575 316286 316286 316286 316286
       1576 316289 316289 316289 316289
       1577 316290 316290 316290 316290
       1578 316292 316292 316292 316292
       1579 316294 316294 316294 316294
       1580 316296 316296 316296 316296
       1581 316297 316297 316297 316297
       1582 316298 316298 316298 316298
       1583 316299 316299 316299 316299
       1584 316300 316300 316300 316300
       1585 316305 316305 316305 316305
       1586 316307 316307 316307 316307
       1587 316310 316310 316310 316310
       1588 316311 316311 316311 316311
       1589 316314 316314 316314 316314
       1590 316320 316320 316320 316320
       1591 316321 316321 316321 316321
       1592 316322 316322 316322 316322
       1593 316323 316323 316323 316323
       1594 316326 316326 316326 316326
       1595 316328 316328 316328 316328
       1596 316330 316330 316330 316330
       1597 316332 316332 316332 316332
       1598 316333 316333 316333 316333
       1599 316334 316334 316334 316334
       1600 316336 316336 316336 316336
       1601 316338 316338 316338 316338
       1602 316341 316341 316341 316341
       1603 316343 316343 316343 316343
       1604 316346 316346 316346 316346
       1605 316347 316347 316347 316347
       1606 316350 316350 316350 316350
       1607 316357 316357 316357 316357
       1608 316358 316358 316358 316358
       1609 316360 316360 316360 316360
       1610 316363 316363 316363 316363
       1611 316364 316364 316364 316364
       1612 316367 316367 316367 316367
       1613 316368 316368 316368 316368
       1614 316370 316370 316370 316370
       1615 316371 316371 316371 316371
       1616 316372 316372 316372 316372
       1617 316373 316373 316373 316373
       1618 316374 316374 316374 316374
       1619 316379 316379 316379 316379
       1620 316381 316381 316381 316381
       1621 316384 316384 316384 316384
       1622 316385 316385 316385 316385
       1623 316388 316388 316388 316388
       1624 316397 316397 316397 316397
       1625 316399 316399 316399 316399
       1626 316402 316402 316402 316402
       1627 316403 316403 316403 316403
       1628 316406 316406 316406 316406
       1629 316407 316407 316407 316407
       1630 316409 316409 316409 316409
       1631 316410 316410 316410 316410
       1632 316411 316411 316411 316411
       1633 316412 316412 316412 316412
       1634 316413 316413 316413 316413
       1635 316418 316418 316418 316418
       1636 316420 316420 316420 316420
       1637 316423 316423 316423 316423
       1638 316424 316424 316424 316424
       1639 316427 316427 316427 316427
       1640 316433 316433 316433 316433
       1641 316434 316434 316434 316434
       1642 316435 316435 316435 316435
       1643 316437 316437 316437 316437
       1644 316439 316439 316439 316439
       1645 316440 316440 316440 316440
       1646 316442 316442 316442 316442
       1647 316444 316444 316444 316444
       1648 316446 316446 316446 316446
       1649 316447 316447 316447 316447
       1650 316448 316448 316448 316448
       1651 316450 316450 316450 316450
       1652 316452 316452 316452 316452
       1653 316455 316455 316455 316455
       1654 316457 316457 316457 316457
       1655 316460 316460 316460 316460
       1656 316461 316461 316461 316461
       1657 316464 316464 316464 316464
       1658 316471 316471 316471 316471
       1659 316473 316473 316473 316473
       1660 316476 316476 316476 316476
       1661 316477 316477 316477 316477
       1662 316480 316480 316480 316480
       1663 316481 316481 316481 316481
       1664 316483 316483 316483 316483
       1665 316484 316484 316484 316484
       1666 316485 316485 316485 316485
       1667 316486 316486 316486 316486
       1668 316487 316487 316487 316487
       1669 316492 316492 316492 316492
       1670 316494 316494 316494 316494
       1671 316497 316497 316497 316497
       1672 316498 316498 316498 316498
       1673 316501 316501 316501 316501
       1674 316509 316509 316509 316509
       1675 316511 316511 316511 316511
       1676 316514 316514 316514 316514
       1677 316515 316515 316515 316515
       1678 316518 316518 316518 316518
       1679 316519 316519 316519 316519
       1680 316521 316521 316521 316521
       1681 316522 316522 316522 316522
       1682 316523 316523 316523 316523
       1683 316524 316524 316524 316524
       1684 316525 316525 316525 316525
       1685 316530 316530 316530 316530
       1686 316532 316532 316532 316532
       1687 316535 316535 316535 316535
       1688 316536 316536 316536 316536
       1689 316539 316539 316539 316539
       1690 316544 316544 316544 316544
       1691 316548 316548 316548 316548
       1692 316550 316550 316550 316550
       1693 316551 316551 316551 316551
       1694 316554 316554 316554 316554
       1695 316555 316555 316555 316555
       1696 316557 316557 316557 316557
       1697 316558 316558 316558 316558
       1698 316559 316559 316559 316559
       1699 316561 316561 316561 316561
       1700 316563 316563 316563 316563
       1701 316566 316566 316566 316566
       1702 316568 316568 316568 316568
       1703 316571 316571 316571 316571
       1704 316572 316572 316572 316572
       1705 316575 316575 316575 316575
       1706 316580 316580 316580 316580
       1707 316581 316581 316581 316581
       1708 316583 316583 316583 316583
       1709 316588 316588 316588 316588
       1710 316591 316591 316591 316591
       1711 316592 316592 316592 316592
       1712 316595 316595 316595 316595
       1713 316596 316596 316596 316596
       1714 316598 316598 316598 316598
       1715 316599 316599 316599 316599
       1716 316600 316600 316600 316600
       1717 316601 316601 316601 316601
       1718 316602 316602 316602 316602
       1719 316607 316607 316607 316607
       1720 316609 316609 316609 316609
       1721 316612 316612 316612 316612
       1722 316613 316613 316613 316613
       1723 316616 316616 316616 316616
       1724 316621 316621 316621 316621
       1725 316624 316624 316624 316624
       1726 316625 316625 316625 316625
       1727 316631 316631 316631 316631
       1728 316634 316634 316634 316634
       1729 316635 316635 316635 316635
       1730 316638 316638 316638 316638
       1731 316639 316639 316639 316639
       1732 316641 316641 316641 316641
       1733 316642 316642 316642 316642
       1734 316643 316643 316643 316643
       1735 316644 316644 316644 316644
       1736 316645 316645 316645 316645
       1737 316650 316650 316650 316650
       1738 316652 316652 316652 316652
       1739 316655 316655 316655 316655
       1740 316656 316656 316656 316656
       1741 316659 316659 316659 316659
       1742 316664 316664 316664 316664
       1743 316667 316667 316667 316667
       1744 316670 316670 316670 316670
       1745 316671 316671 316671 316671
       1746 316674 316674 316674 316674
       1747 316675 316675 316675 316675
       1748 316677 316677 316677 316677
       1749 316678 316678 316678 316678
       1750 316679 316679 316679 316679
       1751 316681 316681 316681 316681
       1752 316683 316683 316683 316683
       1753 316686 316686 316686 316686
       1754 316688 316688 316688 316688
       1755 316691 316691 316691 316691
       1756 316692 316692 316692 316692
       1757 316695 316695 316695 316695
       1758 316700 316700 316700 316700
       1759 316705 316705 316705 316705
       1760 316708 316708 316708 316708
       1761 316709 316709 316709 316709
       1762 316711 316711 316711 316711
       1763 316712 316712 316712 316712
       1764 316714 316714 316714 316714
       1765 316715 316715 316715 316715
       1766 316716 316716 316716 316716
       1767 316717 316717 316717 316717
       1768 316718 316718 316718 316718
       1769 316723 316723 316723 316723
       1770 316725 316725 316725 316725
       1771 316728 316728 316728 316728
       1772 316729 316729 316729 316729
       1773 316732 316732 316732 316732
       1774 316737 316737 316737 316737
       1775 316742 316742 316742 316742
       1776 316745 316745 316745 316745
       1777 316746 316746 316746 316746
       1778 316749 316749 316749 316749
       1779 316750 316750 316750 316750
       1780 316752 316752 316752 316752
       1781 316753 316753 316753 316753
       1782 316754 316754 316754 316754
       1783 316755 316755 316755 316755
       1784 316756 316756 316756 316756
       1785 316761 316761 316761 316761
       1786 316763 316763 316763 316763
       1787 316766 316766 316766 316766
       1788 316767 316767 316767 316767
       1789 316770 316770 316770 316770
       1790 316775 316775 316775 316775
       1791 316776 316776 316776 316776
       1792 316777 316777 316777 316777
       1793 316781 316781 316781 316781
       1794 316783 316783 316783 316783
       1795 316786 316786 316786 316786
       1796 316787 316787 316787 316787
       1797 316790 316790 316790 316790
       1798 316792 316792 316792 316792
       1799 316793 316793 316793 316793
       1800 316794 316794 316794 316794
       1801 316795 316795 316795 316795
       1802 316796 316796 316796 316796
       1803 316801 316801 316801 316801
       1804 316803 316803 316803 316803
       1805 316806 316806 316806 316806
       1806 316807 316807 316807 316807
       1807 316810 316810 316810 316810
       1808 316815 316815 316815 316815
       1809 316816 316816 316816 316816
       1810 316817 316817 316817 316817
       1811 316821 316821 316821 316821
       1812 316824 316824 316824 316824
       1813 316825 316825 316825 316825
       1814 316828 316828 316828 316828
       1815 316829 316829 316829 316829
       1816 316831 316831 316831 316831
       1817 316832 316832 316832 316832
       1818 316834 316834 316834 316834
       1819 316835 316835 316835 316835
       1820 316837 316837 316837 316837
       1821 316840 316840 316840 316840
       1822 316842 316842 316842 316842
       1823 316845 316845 316845 316845
       1824 316846 316846 316846 316846
       1825 316849 316849 316849 316849
       1826 316854 316854 316854 316854
       1827 316856 316856 316856 316856
       1828 316860 316860 316860 316860
       1829 316862 316862 316862 316862
       1830 316863 316863 316863 316863
       1831 316866 316866 316866 316866
       1832 316867 316867 316867 316867
       1833 316869 316869 316869 316869
       1834 316870 316870 316870 316870
       1835 316871 316871 316871 316871
       1836 316872 316872 316872 316872
       1837 316873 316873 316873 316873
       1838 316878 316878 316878 316878
       1839 316880 316880 316880 316880
       1840 316883 316883 316883 316883
       1841 316884 316884 316884 316884
       1842 316887 316887 316887 316887
       1843 316892 316892 316892 316892
       1844 316893 316893 316893 316893
       1845 316897 316897 316897 316897
       1846 316900 316900 316900 316900
       1847 316901 316901 316901 316901
       1848 316903 316903 316903 316903
       1849 316905 316905 316905 316905
       1850 316907 316907 316907 316907
       1851 316908 316908 316908 316908
       1852 316909 316909 316909 316909
       1853 316910 316910 316910 316910
       1854 316911 316911 316911 316911
       1855 316916 316916 316916 316916
       1856 316918 316918 316918 316918
       1857 316921 316921 316921 316921
       1858 316922 316922 316922 316922
       1859 316925 316925 316925 316925
       1860 316930 316930 316930 316930
       1861 316933 316933 316933 316933
       1862 316937 316937 316937 316937
       1863 316940 316940 316940 316940
       1864 316941 316941 316941 316941
       1865 316944 316944 316944 316944
       1866 316945 316945 316945 316945
       1867 316947 316947 316947 316947
       1868 316948 316948 316948 316948
       1869 316949 316949 316949 316949
       1870 316950 316950 316950 316950
       1871 316951 316951 316951 316951
       1872 316956 316956 316956 316956
       1873 316958 316958 316958 316958
       1874 316961 316961 316961 316961
       1875 316962 316962 316962 316962
       1876 316965 316965 316965 316965
       1877 316970 316970 316970 316970
[...]
     number of failed tshell elements = 0
 f a i l e d   e l e m e n t   r e p o r t  time=  3.1592E-05
     number of failed solid  elements = 0
     number of failed beam   elements = 0
     number of failed shell  elements = 0
     number of failed tshell elements = 0
 f a i l e d   e l e m e n t   r e p o r t  time=  3.1622E-05
     number of failed solid  elements = 0
     number of failed beam   elements = 0
     number of failed shell  elements = 0
     number of failed tshell elements = 0
 f a i l e d   e l e m e n t   r e p o r t  time=  3.1912E-05
     number of failed solid  elements = 0
     number of failed beam   elements = 0
     number of failed shell  elements = 0
     number of failed tshell elements = 0
 f a i l e d   e l e m e n t   r e p o r t  time=  3.2432E-05
     number of failed solid  elements = 0
     number of failed beam   elements = 0
     number of failed shell  elements = 0
     number of failed tshell elements = 0
 f a i l e d   e l e m e n t   r e p o r t  time=  3.3010E-05
     number of failed solid  elements = 0
     number of failed beam   elements = 0
     number of failed shell  elements = 0
     number of failed tshell elements = 0
 f a i l e d   e l e m e n t   r e p o r t  time=  3.3021E-05
     number of failed solid  elements = 0
     number of failed beam   elements = 0
     number of failed shell  elements = 0
     number of failed tshell elements = 0
 f a i l e d   e l e m e n t   r e p o r t  time=  3.3092E-05
     number of failed solid  elements = 0
     number of failed beam   elements = 0
     number of failed shell  elements = 0
     number of failed tshell elements = 0
 f a i l e d   e l e m e n t   r e p o r t  time=  3.4181E-05
     number of failed solid  elements = 0
     number of failed beam   elements = 0
     number of failed shell  elements = 0
     number of failed tshell elements = 0
 f a i l e d   e l e m e n t   r e p o r t  time=  3.4247E-05
     number of failed solid  elements = 0
     number of failed beam   elements = 0
     number of failed shell  elements = 0
     number of failed tshell elements = 0
 f a i l e d   e l e m e n t   r e p o r t  time=  3.4293E-05
     number of failed solid  elements = 0
     number of failed beam   elements = 0
     number of failed shell  elements = 0
     number of failed tshell elements = 0
 f a i l e d   e l e m e n t   r e p o r t  time=  3.4326E-05
     number of failed solid  elements = 0
     number of failed beam   elements = 0
     number of failed shell  elements = 0
     number of failed tshell elements = 0
 f a i l e d   e l e m e n t   r e p o r t  time=  3.4364E-05
     number of failed solid  elements = 0
     number of failed beam   elements = 0
     number of failed shell  elements = 0
     number of failed tshell elements = 0
 f a i l e d   e l e m e n t   r e p o r t  time=  3.5084E-05
     number of failed solid  elements = 0
     number of failed beam   elements = 0
     number of failed shell  elements = 0
     number of failed tshell elements = 0
 f a i l e d   e l e m e n t   r e p o r t  time=  3.5418E-05
     number of failed solid  elements = 0
     number of failed beam   elements = 0
     number of failed shell  elements = 0
     number of failed tshell elements = 0
 f a i l e d   e l e m e n t   r e p o r t  time=  3.5431E-05
     number of failed solid  elements = 0
     number of failed beam   elements = 0
     number of failed shell  elements = 0
     number of failed tshell elements = 0
 f a i l e d   e l e m e n t   r e p o r t  time=  3.5569E-05
     number of failed solid  elements = 0
     number of failed beam   elements = 0
     number of failed shell  elements = 0
     number of failed tshell elements = 0
 f a i l e d   e l e m e n t   r e p o r t  time=  3.6050E-05
     number of failed solid  elements = 0
     number of failed beam   elements = 0
     number of failed shell  elements = 0
     number of failed tshell elements = 0
 f a i l e d   e l e m e n t   r e p o r t  time=  3.6294E-05
     number of failed solid  elements = 0
     number of failed beam   elements = 0
     number of failed shell  elements = 0
     number of failed tshell elements = 0
 f a i l e d   e l e m e n t   r e p o r t  time=  3.6494E-05
     number of failed solid  elements = 0
     number of failed beam   elements = 0
     number of failed shell  elements = 0
     number of failed tshell elements = 0
 f a i l e d   e l e m e n t   r e p o r t  time=  3.6756E-05
     number of failed solid  elements = 0
     number of failed beam   elements = 0
     number of failed shell  elements = 0
     number of failed tshell elements = 0
 f a i l e d   e l e m e n t   r e p o r t  time=  3.7561E-05
     number of failed solid  elements = 0
     number of failed beam   elements = 0
     number of failed shell  elements = 0
     number of failed tshell elements = 0
 f a i l e d   e l e m e n t   r e p o r t  time=  3.7563E-05
     number of failed solid  elements = 0
     number of failed beam   elements = 0
     number of failed shell  elements = 0
     number of failed tshell elements = 0
 f a i l e d   e l e m e n t   r e p o r t  time=  3.7571E-05
     number of failed solid  elements = 0
     number of failed beam   elements = 0
     number of failed shell  elements = 0
     number of failed tshell elements = 0
 f a i l e d   e l e m e n t   r e p o r t  time=  3.7609E-05
     number of failed solid  elements = 0
     number of failed beam   elements = 0
     number of failed shell  elements = 0
     number of failed tshell elements = 0
 f a i l e d   e l e m e n t   r e p o r t  time=  3.7770E-05
     number of failed solid  elements = 0
     number of failed beam   elements = 0
     number of failed shell  elements = 0
     number of failed tshell elements = 0
 f a i l e d   e l e m e n t   r e p o r t  time=  3.8106E-05
     number of failed solid  elements = 0
     number of failed beam   elements = 0
     number of failed shell  elements = 0
     number of failed tshell elements = 0
 f a i l e d   e l e m e n t   r e p o r t  time=  3.9043E-05
     number of failed solid  elements = 0
     number of failed beam   elements = 0
     number of failed shell  elements = 0
     number of failed tshell elements = 0
 f a i l e d   e l e m e n t   r e p o r t  time=  3.9117E-05
     number of failed solid  elements = 0
     number of failed beam   elements = 0
     number of failed shell  elements = 0
     number of failed tshell elements = 0
 f a i l e d   e l e m e n t   r e p o r t  time=  3.9670E-05
     number of failed solid  elements = 0
     number of failed beam   elements = 0
     number of failed shell  elements = 0
     number of failed tshell elements = 0
 f a i l e d   e l e m e n t   r e p o r t  time=  3.9759E-05
     number of failed solid  elements = 0
     number of failed beam   elements = 0
     number of failed shell  elements = 0
     number of failed tshell elements = 0
 f a i l e d   e l e m e n t   r e p o r t  time=  4.0596E-05
     number of failed solid  elements = 0
     number of failed beam   elements = 0
     number of failed shell  elements = 0
     number of failed tshell elements = 0
 f a i l e d   e l e m e n t   r e p o r t  time=  4.0698E-05
     number of failed solid  elements = 0
     number of failed beam   elements = 0
     number of failed shell  elements = 0
     number of failed tshell elements = 0
 f a i l e d   e l e m e n t   r e p o r t  time=  4.0781E-05
     number of failed solid  elements = 0
     number of failed beam   elements = 0
     number of failed shell  elements = 0
     number of failed tshell elements = 0
 f a i l e d   e l e m e n t   r e p o r t  time=  4.2098E-05
     number of failed solid  elements = 0
     number of failed beam   elements = 0
     number of failed shell  elements = 0
     number of failed tshell elements = 0
 f a i l e d   e l e m e n t   r e p o r t  time=  4.2186E-05
     number of failed solid  elements = 0
     number of failed beam   elements = 0
     number of failed shell  elements = 0
     number of failed tshell elements = 0
 f a i l e d   e l e m e n t   r e p o r t  time=  4.2551E-05
     number of failed solid  elements = 0
     number of failed beam   elements = 0
     number of failed shell  elements = 0
     number of failed tshell elements = 0
 f a i l e d   e l e m e n t   r e p o r t  time=  4.2929E-05
     number of failed solid  elements = 0
     number of failed beam   elements = 0
     number of failed shell  elements = 0
     number of failed tshell elements = 0
 f a i l e d   e l e m e n t   r e p o r t  time=  4.3341E-05
     number of failed solid  elements = 0
     number of failed beam   elements = 0
     number of failed shell  elements = 0
     number of failed tshell elements = 0
 f a i l e d   e l e m e n t   r e p o r t  time=  4.5272E-05
     number of failed solid  elements = 0
     number of failed beam   elements = 0
     number of failed shell  elements = 0
     number of failed tshell elements = 0
 f a i l e d   e l e m e n t   r e p o r t  time=  4.6399E-05
     number of failed solid  elements = 0
     number of failed beam   elements = 0
     number of failed shell  elements = 0
     number of failed tshell elements = 0
 f a i l e d   e l e m e n t   r e p o r t  time=  4.6954E-05
     number of failed solid  elements = 0
     number of failed beam   elements = 0
     number of failed shell  elements = 0
     number of failed tshell elements = 0
 f a i l e d   e l e m e n t   r e p o r t  time=  4.7911E-05
     number of failed solid  elements = 0
     number of failed beam   elements = 0
     number of failed shell  elements = 0
     number of failed tshell elements = 0
 f a i l e d   e l e m e n t   r e p o r t  time=  4.7967E-05
     number of failed solid  elements = 0
     number of failed beam   elements = 0
     number of failed shell  elements = 0
     number of failed tshell elements = 0
 f a i l e d   e l e m e n t   r e p o r t  time=  4.8163E-05
     number of failed solid  elements = 0
     number of failed beam   elements = 0
     number of failed shell  elements = 0
     number of failed tshell elements = 0
 f a i l e d   e l e m e n t   r e p o r t  time=  4.9005E-05
     number of failed solid  elements = 0
     number of failed beam   elements = 0
     number of failed shell  elements = 0
     number of failed tshell elements = 0
 f a i l e d   e l e m e n t   r e p o r t  time=  5.1471E-05
     number of failed solid  elements = 0
     number of failed beam   elements = 0
     number of failed shell  elements = 0
     number of failed tshell elements = 0
 f a i l e d   e l e m e n t   r e p o r t  time=  5.2806E-05
     number of failed solid  elements = 0
     number of failed beam   elements = 0
     number of failed shell  elements = 0
     number of failed tshell elements = 0
 f a i l e d   e l e m e n t   r e p o r t  time=  5.4499E-05
     number of failed solid  elements = 0
     number of failed beam   elements = 0
     number of failed shell  elements = 0
     number of failed tshell elements = 0
 f a i l e d   e l e m e n t   r e p o r t  time=  5.5530E-05
     number of failed solid  elements = 0
     number of failed beam   elements = 0
     number of failed shell  elements = 0
     number of failed tshell elements = 0
 f a i l e d   e l e m e n t   r e p o r t  time=  5.5930E-05
     number of failed solid  elements = 0
     number of failed beam   elements = 0
     number of failed shell  elements = 0
     number of failed tshell elements = 0
 f a i l e d   e l e m e n t   r e p o r t  time=  5.6006E-05
     number of failed solid  elements = 0
     number of failed beam   elements = 0
     number of failed shell  elements = 0
     number of failed tshell elements = 0
 f a i l e d   e l e m e n t   r e p o r t  time=  5.7102E-05
     number of failed solid  elements = 0
     number of failed beam   elements = 0
     number of failed shell  elements = 0
     number of failed tshell elements = 0
 f a i l e d   e l e m e n t   r e p o r t  time=  5.7681E-05
     number of failed solid  elements = 0
     number of failed beam   elements = 0
     number of failed shell  elements = 0
     number of failed tshell elements = 0
 f a i l e d   e l e m e n t   r e p o r t  time=  5.8178E-05
     number of failed solid  elements = 0
     number of failed beam   elements = 0
     number of failed shell  elements = 0
     number of failed tshell elements = 0
 f a i l e d   e l e m e n t   r e p o r t  time=  5.9290E-05
     number of failed solid  elements = 0
     number of failed beam   elements = 0
     number of failed shell  elements = 0
     number of failed tshell elements = 0
 f a i l e d   e l e m e n t   r e p o r t  time=  5.9445E-05
     number of failed solid  elements = 0
     number of failed beam   elements = 0
     number of failed shell  elements = 0
     number of failed tshell elements = 0
 f a i l e d   e l e m e n t   r e p o r t  time=  5.9893E-05
     number of failed solid  elements = 0
     number of failed beam   elements = 0
     number of failed shell  elements = 0
     number of failed tshell elements = 0

 S t o r a g e   a l l o c a t i o n   

 Memory required to complete solution   :     275K
 Additional dynamically allocated memory:      30M
                                   Total:      30M


 P r o c e s s o r   #         3

 T i m i n g   i n f o r m a t i o n
                        CPU(seconds)   %CPU  Clock(seconds) %Clock
  ----------------------------------------------------------------
  Keyword Processing ... 2.9307E-01    0.10     2.9435E-01    0.10
  MPP Decomposition .... 5.6546E-01    0.19     6.2050E-01    0.20
    Init Proc .......... 4.4562E-01    0.15     4.4748E-01    0.15
    Decomposition ...... 3.5297E-02    0.01     3.5466E-02    0.01
    Translation ........ 8.4479E-02    0.03     1.3749E-01    0.05
  Initialization ....... 1.4410E-01    0.05     1.5120E-01    0.05
    Init Proc Phase 1 .. 1.0228E-01    0.03     1.0577E-01    0.03
    Init Proc Phase 2 .. 1.2279E-02    0.00     1.2786E-02    0.00
  Element processing ... 1.1853E+02   39.16     1.1919E+02   39.15
    Solids ............. 1.1332E+02   37.44     1.1394E+02   37.43
    E Other ............ 9.7682E-02    0.03     9.8093E-02    0.03
  Binary databases ..... 5.4395E-01    0.18     5.4772E-01    0.18
  ASCII database ....... 2.0362E+00    0.67     2.0503E+00    0.67
  Contact algorithm .... 6.3934E+01   21.12     6.4283E+01   21.12
    Interf. ID         3 1.6452E+01    5.44     1.6535E+01    5.43
    Interf. ID         2 4.0828E+01   13.49     4.1056E+01   13.49
  Rigid Bodies ......... 4.0287E-01    0.13     4.0255E-01    0.13
  DEM .................. 2.2300E+01    7.37     2.2422E+01    7.37
    DEM self contact ... 2.1707E+01    7.17     2.1829E+01    7.17
  Time step size ....... 5.5878E+01   18.46     5.6148E+01   18.44
  Group force file ..... 7.1694E-02    0.02     8.4260E-02    0.03
  Others ............... 1.7513E+00    0.58     1.7864E+00    0.59
    Force Sharing ...... 1.1494E+00    0.38     1.1536E+00    0.38
  Misc. 1 .............. 2.1590E+01    7.13     2.1716E+01    7.13
    Scale Masses ....... 3.0752E-02    0.01     3.1104E-02    0.01
    Force Constraints .. 4.5742E-02    0.02     4.6033E-02    0.02
    Force to Accel ..... 2.1625E+00    0.71     2.1699E+00    0.71
    Constraint Sharing . 5.0463E-02    0.02     5.1330E-02    0.02
    Update RB nodes .... 5.0019E-02    0.02     5.1582E-02    0.02
  Misc. 2 .............. 5.0146E+00    1.66     5.0311E+00    1.65
  Misc. 3 .............. 8.1946E+00    2.71     8.2720E+00    2.72
  Misc. 4 .............. 1.4313E+00    0.47     1.4387E+00    0.47
    Timestep Init ...... 9.9705E-01    0.33     9.9685E-01    0.33
    Apply Loads ........ 3.6721E-01    0.12     3.7388E-01    0.12
  ----------------------------------------------------------------
  T o t a l s            3.0268E+02  100.00     3.0443E+02  100.00


 A v e r a g e s

 T i m i n g   i n f o r m a t i o n
                        CPU(seconds)   %CPU  Clock(seconds) %Clock
  ----------------------------------------------------------------
  Keyword Processing ... 2.7222E-01    0.09     2.9384E-01    0.10
    KW Reading ......... 1.8597E-02    0.01     1.8880E-02    0.01
    KW Writing ......... 1.0890E-02    0.00     1.7439E-02    0.01
  MPP Decomposition .... 5.2729E-01    0.18     6.2091E-01    0.20
    Init Proc .......... 4.0883E-01    0.14     4.4747E-01    0.15
    Decomposition ...... 3.0257E-02    0.01     3.5491E-02    0.01
    Translation ........ 8.8130E-02    0.03     1.3787E-01    0.05
  Initialization ....... 1.3796E-01    0.05     1.5124E-01    0.05
    Init Proc Phase 1 .. 1.0091E-01    0.03     1.0573E-01    0.03
    Init Proc Phase 2 .. 1.1626E-02    0.00     1.2772E-02    0.00
  Element processing ... 1.3158E+02   43.70     1.3234E+02   43.47
    Solids ............. 1.2627E+02   41.94     1.2699E+02   41.71
    E Other ............ 1.4674E-01    0.05     1.4787E-01    0.05
  Binary databases ..... 5.1471E-01    0.17     5.3015E-01    0.17
  ASCII database ....... 2.2873E+00    0.76     3.7506E+00    1.23
  Contact algorithm .... 6.5005E+01   21.59     6.5363E+01   21.47
    Interf. ID         3 1.6899E+01    5.61     1.6988E+01    5.58
    Interf. ID         2 4.1990E+01   13.95     4.2224E+01   13.87
  Rigid Bodies ......... 3.0066E-01    0.10     3.0019E-01    0.10
  DEM .................. 2.1088E+01    7.00     2.1203E+01    6.96
    DEM self contact ... 2.0515E+01    6.81     2.0629E+01    6.78
  Time step size ....... 4.2775E+01   14.21     4.2989E+01   14.12
  Group force file ..... 6.2516E-02    0.02     7.3279E-02    0.02
  Others ............... 2.0713E+00    0.69     2.1064E+00    0.69
    Force Sharing ...... 1.5536E+00    0.52     1.5600E+00    0.51
  Misc. 1 .............. 2.1517E+01    7.15     2.1655E+01    7.11
    Scale Masses ....... 2.2776E-02    0.01     2.2420E-02    0.01
    Force Constraints .. 3.6836E-02    0.01     3.7579E-02    0.01
    Force to Accel ..... 2.0982E+00    0.70     2.1046E+00    0.69
    Constraint Sharing . 4.4807E-02    0.01     4.5371E-02    0.01
    Update RB nodes .... 4.4833E-02    0.01     4.5707E-02    0.02
  Misc. 2 .............. 5.1596E+00    1.71     5.1791E+00    1.70
  Misc. 3 .............. 6.3567E+00    2.11     6.4341E+00    2.11
  Misc. 4 .............. 1.4313E+00    0.48     1.4391E+00    0.47
    Timestep Init ...... 1.0230E+00    0.34     1.0231E+00    0.34
    Apply Loads ........ 3.3836E-01    0.11     3.4516E-01    0.11
  ----------------------------------------------------------------
  T o t a l s            3.0109E+02  100.00     3.0443E+02  100.00

 Problem time       =    6.0001E-05
 Problem cycle      =     55653
 Total CPU time     =       301 seconds (   0 hours  5 minutes  1 seconds)
 CPU time per zone cycle  =        465.997 nanoseconds
 Clock time per zone cycle=        471.097 nanoseconds

 Parallel execution with      4 MPP proc
 NLQ used/max                64/    64

  C P U   T i m i n g   i n f o r m a t i o n

  Processor   Hostname                              CPU/Avg_CPU  CPU(seconds)
  ---------------------------------------------------------------------------
  #       0   compute-0-1                               0.98438   2.9644E+02
  #       1   compute-0-1                               1.00507   3.0267E+02
  #       2   compute-0-1                               1.00524   3.0272E+02
  #       3   compute-0-1                               1.00530   3.0274E+02
  ---------------------------------------------------------------------------
  T o t a l s                                                     1.2046E+03


 Start time   04/08/2022 13:41:01  
 End time     04/08/2022 13:46:05  
 Elapsed time     304 seconds for   55653 cycles using     4 MPP procs
             (      0 hour   5 minutes  4 seconds)

 N o r m a l    t e r m i n a t i o n                          04/08/22 13:46:05
