      Date: 04/08/2022      Time: 13:41:01  

     ___________________________________________________
     |                                                 |
     |  Livermore Software Technology, LLC             |
     |                                                 |
     |  7374 Las Positas Road                          |
     |  Livermore, CA 94551                            |
     |  Tel: (925) 449-2500  Fax: (925) 449-2507       |
     |  www.lstc.com                                   |
     |_________________________________________________|
     |                                                 |
     |  LS-DYNA, A Program for Nonlinear Dynamic       |
     |  Analysis of Structures in Three Dimensions     |
     |  Version : mpp d R12.0.0   Date: 06/19/2020     |
     |  Revision: 148931          Time: 17:26:40       |
     |                                                 |
     |  Features enabled in this version:              |
     |    Distributed Memory Parallel                  |
     |    CESE CHEMISTRY EM ICFD STOCHASTIC_PARTICLES  |
     |    FFTW (multi-dimensional FFTW Library)        |
     |    ANSYS License (ANSYS202)                     |
     |    BigID  option                                |
     |                                                 |
     |  Licensed to:                                   |
     |  Issued by  : Pascale.SaneGuttin_02092022       |
     |                                                 |
     |  Platform   : Intel-MPI 2018 Xeon64             |
     |  OS Level   : Linux CentOS 6.5 uom              |
     |  Compiler   : Intel Fortran Compiler 16.0 AVX-2 |
     |  Hostname   : compute-0-1                       |
     |  Precision  : Double precision (I8R8)           |
     |  SVN Version: 148978                            |
     |                                                 |
     |  Unauthorized use infringes LST copyrights      |
     |_________________________________________________|


 Input file: DynaOpt.key                                                                     

 The native file format       : 64-bit small endian

 LS-DYNA will perform a structural only analysis 

 allocating  memory to   100000000 d     1985258 hex ownership chunk
 contracting memory to           7 d     1991046 material sort chunk
 expanding   memory to          12 d     2059585 nodal force sharing lists 1
 expanding   memory to          18 d     2042123 mat scratch
 expanding   memory to          19 d     3116519 tied nodes scratch
 expanding   memory to          22 d     3116519 tied node scratch
 contracting memory to          18 d     3116519 nodal rigid body scratch
 expanding   memory to        1298 d     3116519 DES sld2des scratch
 expanding   memory to       19448 d     3116519 DES sld2des scratch
 contracting memory to        2450 d     3116519 DES sld2des scratch
 contracting memory to          18 d     3116519 spring/damper scratch
 contracting memory to           1 d     2106705 Performing Decomposition -- Phase 3
 LS-DYNA keyword deck by LS-PrePost                                      
                         ls-dyna mpp.148931 d           date 06/19/2020
 expanding   memory to        4305 d     2106705 material, node and element data
 expanding   memory to        4399 d     2106724 mat add general damage 0
 expanding   memory to        4459 d     2106724 material added airbag porosity leakage 
 expanding   memory to        4477 d     2106724 material properties
 expanding   memory to        4495 d     2147069 element data for composite material
 expanding   memory to        4510 d     2499894 gradient of damage data
 expanding   memory to       18508 d     2543313 user control for contact interfaces
 contracting memory to       18494 d     2543313 thermal expansion 0
 expanding   memory to       18500 d     2543313 state of charge expansion 0
 expanding   memory to       18502 d     2543313 cross-sectional force definitions 0
 expanding   memory to       28860 d     2543349 temp index array for node sorting
 contracting memory to       18502 d     2543349 just because?
 expanding   memory to       21396 d     2564083 arbitrary element numbering input
 contracting memory to       18522 d    27230409 spc cards
 contracting memory to       18509 d    27230409 d3thdt storage
 expanding   memory to       18510 d    27319896 process element material data
 expanding   memory to       20511 d    27319890 load curve data
 contracting memory to       18517 d    27319890 user_define_loading_set
 expanding   memory to       18717 d    27319890 regularize time history data
 contracting memory to       18521 d    27319890 *DEFINE_ELEMENT_DEATH
 expanding   memory to       18776 d    27299353 contact interfaces
 expanding   memory to       40492 d    27299353 implicit contact 1
 expanding   memory to       63606 d    27299353 implicit contact 2
 contracting memory to       19776 d    27570284 contact segment data 1
 expanding   memory to       74002 d    27832604 contact segment data 3
 expanding   memory to      166570 d    27705672 read contacts, eroding check
 expanding   memory to      256331 d    27705672 eroding neighbors 2
 expanding   memory to      276590 d    27705672 eroding neighbors
 contracting memory to      114520 d    28171774 contact definition
 expanding   memory to      114526 d    28327204 contact history
 expanding   memory to      114580 d    28411736 rigid body
 expanding   memory to      114598 d    28412350 rbe2 scratch
 contracting memory to      114584 d    28474958 contact friction
 expanding   memory to      114674 d    28474964 joints
 expanding   memory to      116734 d    28474964 de sld2des
 expanding   memory to      116774 d    28483646 discrete elements regions
 expanding   memory to      116874 d    28698110 rigid bodies for disp. termination
 
 *** Warning 40859 (SOL+859)
     Cannot find elements of slave segment of interface 2
 deleted segment ID          n1          n2          n3          n4
       1 310640 310640 310640 310640
       2 310642 310642 310642 310642
       3 310649 310649 310649 310649
       4 310650 310650 310650 310650
       5 310653 310653 310653 310653
       6 310657 310657 310657 310657
       7 310658 310658 310658 310658
       8 310659 310659 310659 310659
       9 310662 310662 310662 310662
       10 310667 310667 310667 310667
       11 310669 310669 310669 310669
       12 310673 310673 310673 310673
       13 310674 310674 310674 310674
       14 310675 310675 310675 310675
       15 310676 310676 310676 310676
       16 310677 310677 310677 310677
       17 310681 310681 310681 310681
       18 310683 310683 310683 310683
       19 310689 310689 310689 310689
       20 310690 310690 310690 310690
       21 310693 310693 310693 310693
       22 310696 310696 310696 310696
       23 310697 310697 310697 310697
       24 310699 310699 310699 310699
       25 310702 310702 310702 310702
       26 310707 310707 310707 310707
       27 310709 310709 310709 310709
       28 310713 310713 310713 310713
       29 310714 310714 310714 310714
       30 310715 310715 310715 310715
       31 310716 310716 310716 310716
       32 310717 310717 310717 310717
       33 310723 310723 310723 310723
       34 310725 310725 310725 310725
       35 310735 310735 310735 310735
       36 310736 310736 310736 310736
       37 310739 310739 310739 310739
       38 310742 310742 310742 310742
       39 310743 310743 310743 310743
       40 310745 310745 310745 310745
       41 310747 310747 310747 310747
       42 310752 310752 310752 310752
       43 310754 310754 310754 310754
       44 310758 310758 310758 310758
       45 310759 310759 310759 310759
       46 310760 310760 310760 310760
       47 310761 310761 310761 310761
       48 310762 310762 310762 310762
       49 310775 310775 310775 310775
       50 310776 310776 310776 310776
       51 310779 310779 310779 310779
       52 310782 310782 310782 310782
       53 310783 310783 310783 310783
       54 310785 310785 310785 310785
       55 310792 310792 310792 310792
       56 310794 310794 310794 310794
       57 310798 310798 310798 310798
       58 310799 310799 310799 310799
       59 310800 310800 310800 310800
       60 310801 310801 310801 310801
       61 310802 310802 310802 310802
       62 310813 310813 310813 310813
       63 310814 310814 310814 310814
       64 310816 310816 310816 310816
       65 310819 310819 310819 310819
       66 310820 310820 310820 310820
       67 310822 310822 310822 310822
       68 310823 310823 310823 310823
       69 310825 310825 310825 310825
       70 310830 310830 310830 310830
       71 310832 310832 310832 310832
       72 310836 310836 310836 310836
       73 310837 310837 310837 310837
       74 310838 310838 310838 310838
       75 310839 310839 310839 310839
       76 310840 310840 310840 310840
       77 310846 310846 310846 310846
       78 310852 310852 310852 310852
       79 310853 310853 310853 310853
       80 310855 310855 310855 310855
       81 310858 310858 310858 310858
       82 310859 310859 310859 310859
       83 310861 310861 310861 310861
       84 310862 310862 310862 310862
       85 310864 310864 310864 310864
       86 310869 310869 310869 310869
       87 310871 310871 310871 310871
       88 310875 310875 310875 310875
       89 310876 310876 310876 310876
       90 310877 310877 310877 310877
       91 310878 310878 310878 310878
       92 310879 310879 310879 310879
       93 310891 310891 310891 310891
       94 310892 310892 310892 310892
       95 310895 310895 310895 310895
       96 310898 310898 310898 310898
       97 310899 310899 310899 310899
       98 310901 310901 310901 310901
       99 310902 310902 310902 310902
       100 310904 310904 310904 310904
       101 310909 310909 310909 310909
       102 310911 310911 310911 310911
       103 310915 310915 310915 310915
       104 310916 310916 310916 310916
       105 310917 310917 310917 310917
       106 310918 310918 310918 310918
       107 310919 310919 310919 310919
       108 310931 310931 310931 310931
       109 310933 310933 310933 310933
       110 310935 310935 310935 310935
       111 310938 310938 310938 310938
       112 310939 310939 310939 310939
       113 310941 310941 310941 310941
       114 310942 310942 310942 310942
       115 310944 310944 310944 310944
       116 310949 310949 310949 310949
       117 310951 310951 310951 310951
       118 310954 310954 310954 310954
       119 310955 310955 310955 310955
       120 310956 310956 310956 310956
       121 310957 310957 310957 310957
       122 310958 310958 310958 310958
       123 310964 310964 310964 310964
       124 310971 310971 310971 310971
       125 310973 310973 310973 310973
       126 310975 310975 310975 310975
       127 310977 310977 310977 310977
       128 310978 310978 310978 310978
       129 310980 310980 310980 310980
       130 310981 310981 310981 310981
       131 310983 310983 310983 310983
       132 310988 310988 310988 310988
       133 310990 310990 310990 310990
       134 310991 310991 310991 310991
       135 310994 310994 310994 310994
       136 310995 310995 310995 310995
       137 310996 310996 310996 310996
       138 310997 310997 310997 310997
       139 310998 310998 310998 310998
       140 311010 311010 311010 311010
       141 311013 311013 311013 311013
       142 311016 311016 311016 311016
       143 311017 311017 311017 311017
       144 311019 311019 311019 311019
       145 311020 311020 311020 311020
       146 311022 311022 311022 311022
       147 311027 311027 311027 311027
       148 311029 311029 311029 311029
       149 311030 311030 311030 311030
       150 311033 311033 311033 311033
       151 311034 311034 311034 311034
       152 311035 311035 311035 311035
       153 311037 311037 311037 311037
       154 311042 311042 311042 311042
       155 311046 311046 311046 311046
       156 311050 311050 311050 311050
       157 311053 311053 311053 311053
       158 311056 311056 311056 311056
       159 311058 311058 311058 311058
       160 311059 311059 311059 311059
       161 311061 311061 311061 311061
       162 311066 311066 311066 311066
       163 311068 311068 311068 311068
       164 311069 311069 311069 311069
       165 311072 311072 311072 311072
       166 311073 311073 311073 311073
       167 311075 311075 311075 311075
       168 311082 311082 311082 311082
       169 311086 311086 311086 311086
       170 311090 311090 311090 311090
       171 311093 311093 311093 311093
       172 311094 311094 311094 311094
       173 311096 311096 311096 311096
       174 311097 311097 311097 311097
       175 311099 311099 311099 311099
       176 311104 311104 311104 311104
       177 311106 311106 311106 311106
       178 311107 311107 311107 311107
       179 311111 311111 311111 311111
       180 311112 311112 311112 311112
       181 311114 311114 311114 311114
       182 311124 311124 311124 311124
       183 311125 311125 311125 311125
       184 311128 311128 311128 311128
       185 311131 311131 311131 311131
       186 311132 311132 311132 311132
       187 311134 311134 311134 311134
       188 311135 311135 311135 311135
       189 311137 311137 311137 311137
       190 311142 311142 311142 311142
       191 311144 311144 311144 311144
       192 311145 311145 311145 311145
       193 311149 311149 311149 311149
       194 311150 311150 311150 311150
       195 311152 311152 311152 311152
       196 311165 311165 311165 311165
       197 311168 311168 311168 311168
       198 311171 311171 311171 311171
       199 311172 311172 311172 311172
       200 311174 311174 311174 311174
       201 311175 311175 311175 311175
       202 311177 311177 311177 311177
       203 311182 311182 311182 311182
       204 311184 311184 311184 311184
       205 311185 311185 311185 311185
       206 311189 311189 311189 311189
       207 311190 311190 311190 311190
       208 311192 311192 311192 311192
       209 311208 311208 311208 311208
       210 311209 311209 311209 311209
       211 311214 311214 311214 311214
       212 311215 311215 311215 311215
       213 311217 311217 311217 311217
       214 311218 311218 311218 311218
       215 311220 311220 311220 311220
       216 311225 311225 311225 311225
       217 311227 311227 311227 311227
       218 311228 311228 311228 311228
       219 311232 311232 311232 311232
       220 311233 311233 311233 311233
       221 311235 311235 311235 311235
       222 311247 311247 311247 311247
       223 311248 311248 311248 311248
       224 311254 311254 311254 311254
       225 311255 311255 311255 311255
       226 311257 311257 311257 311257
       227 311258 311258 311258 311258
       228 311260 311260 311260 311260
       229 311265 311265 311265 311265
       230 311267 311267 311267 311267
       231 311268 311268 311268 311268
       232 311272 311272 311272 311272
       233 311273 311273 311273 311273
       234 311275 311275 311275 311275
       235 311287 311287 311287 311287
       236 311288 311288 311288 311288
       237 311290 311290 311290 311290
       238 311294 311294 311294 311294
       239 311295 311295 311295 311295
       240 311297 311297 311297 311297
       241 311298 311298 311298 311298
       242 311300 311300 311300 311300
       243 311304 311304 311304 311304
       244 311306 311306 311306 311306
       245 311307 311307 311307 311307
       246 311311 311311 311311 311311
       247 311312 311312 311312 311312
       248 311314 311314 311314 311314
       249 311318 311318 311318 311318
       250 311327 311327 311327 311327
       251 311328 311328 311328 311328
       252 311330 311330 311330 311330
       253 311334 311334 311334 311334
       254 311335 311335 311335 311335
       255 311337 311337 311337 311337
       256 311338 311338 311338 311338
       257 311340 311340 311340 311340
       258 311345 311345 311345 311345
       259 311347 311347 311347 311347
       260 311348 311348 311348 311348
       261 311352 311352 311352 311352
       262 311353 311353 311353 311353
       263 311355 311355 311355 311355
       264 311359 311359 311359 311359
       265 311367 311367 311367 311367
       266 311368 311368 311368 311368
       267 311370 311370 311370 311370
       268 311374 311374 311374 311374
       269 311375 311375 311375 311375
       270 311377 311377 311377 311377
       271 311378 311378 311378 311378
       272 311380 311380 311380 311380
       273 311385 311385 311385 311385
       274 311387 311387 311387 311387
       275 311388 311388 311388 311388
       276 311392 311392 311392 311392
       277 311393 311393 311393 311393
       278 311395 311395 311395 311395
       279 311408 311408 311408 311408
       280 311409 311409 311409 311409
       281 311413 311413 311413 311413
       282 311414 311414 311414 311414
       283 311415 311415 311415 311415
       284 311417 311417 311417 311417
       285 311418 311418 311418 311418
       286 311420 311420 311420 311420
       287 311425 311425 311425 311425
       288 311427 311427 311427 311427
       289 311428 311428 311428 311428
       290 311432 311432 311432 311432
       291 311433 311433 311433 311433
       292 311435 311435 311435 311435
       293 311446 311446 311446 311446
       294 311449 311449 311449 311449
       295 311451 311451 311451 311451
       296 311454 311454 311454 311454
       297 311455 311455 311455 311455
       298 311457 311457 311457 311457
       299 311458 311458 311458 311458
       300 311459 311459 311459 311459
       301 311464 311464 311464 311464
       302 311466 311466 311466 311466
       303 311467 311467 311467 311467
       304 311471 311471 311471 311471
       305 311472 311472 311472 311472
       306 311474 311474 311474 311474
       307 311478 311478 311478 311478
       308 311486 311486 311486 311486
       309 311487 311487 311487 311487
       310 311489 311489 311489 311489
       311 311493 311493 311493 311493
       312 311494 311494 311494 311494
       313 311496 311496 311496 311496
       314 311497 311497 311497 311497
       315 311499 311499 311499 311499
       316 311504 311504 311504 311504
       317 311505 311505 311505 311505
       318 311506 311506 311506 311506
       319 311510 311510 311510 311510
       320 311511 311511 311511 311511
       321 311513 311513 311513 311513
       322 311517 311517 311517 311517
       323 311519 311519 311519 311519
       324 311522 311522 311522 311522
       325 311525 311525 311525 311525
       326 311526 311526 311526 311526
       327 311527 311527 311527 311527
       328 311532 311532 311532 311532
       329 311533 311533 311533 311533
       330 311534 311534 311534 311534
       331 311536 311536 311536 311536
       332 311537 311537 311537 311537
       333 311539 311539 311539 311539
       334 311546 311546 311546 311546
       335 311547 311547 311547 311547
       336 311551 311551 311551 311551
       337 311552 311552 311552 311552
       338 311554 311554 311554 311554
       339 311560 311560 311560 311560
       340 311567 311567 311567 311567
       341 311568 311568 311568 311568
       342 311569 311569 311569 311569
       343 311571 311571 311571 311571
       344 311575 311575 311575 311575
       345 311576 311576 311576 311576
       346 311577 311577 311577 311577
       347 311578 311578 311578 311578
       348 311579 311579 311579 311579
       349 311588 311588 311588 311588
       350 311589 311589 311589 311589
       351 311593 311593 311593 311593
       352 311594 311594 311594 311594
       353 311596 311596 311596 311596
       354 311602 311602 311602 311602
       355 311607 311607 311607 311607
       356 311608 311608 311608 311608
       357 311610 311610 311610 311610
       358 311614 311614 311614 311614
       359 311615 311615 311615 311615
       360 311617 311617 311617 311617
       361 311618 311618 311618 311618
       362 311620 311620 311620 311620
       363 311627 311627 311627 311627
       364 311628 311628 311628 311628
       365 311632 311632 311632 311632
       366 311633 311633 311633 311633
       367 311635 311635 311635 311635
       368 311639 311639 311639 311639
       369 311646 311646 311646 311646
       370 311647 311647 311647 311647
       371 311648 311648 311648 311648
       372 311653 311653 311653 311653
       373 311654 311654 311654 311654
       374 311655 311655 311655 311655
       375 311657 311657 311657 311657
       376 311658 311658 311658 311658
       377 311660 311660 311660 311660
       378 311667 311667 311667 311667
       379 311668 311668 311668 311668
       380 311672 311672 311672 311672
       381 311673 311673 311673 311673
       382 311675 311675 311675 311675
       383 311685 311685 311685 311685
       384 311686 311686 311686 311686
       385 311687 311687 311687 311687
       386 311689 311689 311689 311689
       387 311693 311693 311693 311693
       388 311694 311694 311694 311694
       389 311696 311696 311696 311696
       390 311697 311697 311697 311697
       391 311699 311699 311699 311699
       392 311706 311706 311706 311706
       393 311707 311707 311707 311707
       394 311711 311711 311711 311711
       395 311712 311712 311712 311712
       396 311714 311714 311714 311714
       397 311719 311719 311719 311719
       398 311725 311725 311725 311725
       399 311726 311726 311726 311726
       400 311727 311727 311727 311727
       401 311728 311728 311728 311728
       402 311733 311733 311733 311733
       403 311734 311734 311734 311734
       404 311736 311736 311736 311736
       405 311739 311739 311739 311739
       406 311744 311744 311744 311744
       407 311746 311746 311746 311746
       408 311747 311747 311747 311747
       409 311751 311751 311751 311751
       410 311752 311752 311752 311752
       411 311754 311754 311754 311754
       412 311758 311758 311758 311758
       413 311767 311767 311767 311767
       414 311768 311768 311768 311768
       415 311770 311770 311770 311770
       416 311772 311772 311772 311772
       417 311774 311774 311774 311774
       418 311775 311775 311775 311775
       419 311777 311777 311777 311777
       420 311780 311780 311780 311780
       421 311784 311784 311784 311784
       422 311786 311786 311786 311786
       423 311787 311787 311787 311787
       424 311791 311791 311791 311791
       425 311792 311792 311792 311792
       426 311794 311794 311794 311794
       427 311805 311805 311805 311805
       428 311806 311806 311806 311806
       429 311807 311807 311807 311807
       430 311809 311809 311809 311809
       431 311812 311812 311812 311812
       432 311813 311813 311813 311813
       433 311815 311815 311815 311815
       434 311816 311816 311816 311816
       435 311823 311823 311823 311823
       436 311825 311825 311825 311825
       437 311826 311826 311826 311826
       438 311830 311830 311830 311830
       439 311831 311831 311831 311831
       440 311833 311833 311833 311833
       441 311842 311842 311842 311842
       442 311843 311843 311843 311843
       443 311844 311844 311844 311844
       444 311850 311850 311850 311850
       445 311851 311851 311851 311851
       446 311852 311852 311852 311852
       447 311853 311853 311853 311853
       448 311855 311855 311855 311855
       449 311860 311860 311860 311860
       450 311861 311861 311861 311861
       451 311862 311862 311862 311862
       452 311863 311863 311863 311863
       453 311867 311867 311867 311867
       454 311868 311868 311868 311868
       455 311870 311870 311870 311870
       456 311874 311874 311874 311874
       457 311879 311879 311879 311879
       458 311880 311880 311880 311880
       459 311884 311884 311884 311884
       460 311887 311887 311887 311887
       461 311888 311888 311888 311888
       462 311890 311890 311890 311890
       463 311893 311893 311893 311893
       464 311898 311898 311898 311898
       465 311899 311899 311899 311899
       466 311900 311900 311900 311900
       467 311901 311901 311901 311901
       468 311905 311905 311905 311905
       469 311906 311906 311906 311906
       470 311908 311908 311908 311908
       471 311912 311912 311912 311912
       472 311918 311918 311918 311918
       473 311919 311919 311919 311919
       474 311920 311920 311920 311920
       475 311923 311923 311923 311923
       476 311926 311926 311926 311926
       477 311927 311927 311927 311927
       478 311929 311929 311929 311929
       479 311932 311932 311932 311932
       480 311937 311937 311937 311937
       481 311938 311938 311938 311938
       482 311939 311939 311939 311939
       483 311940 311940 311940 311940
       484 311944 311944 311944 311944
       485 311945 311945 311945 311945
       486 311947 311947 311947 311947
       487 311955 311955 311955 311955
       488 311956 311956 311956 311956
       489 311957 311957 311957 311957
       490 311959 311959 311959 311959
       491 311963 311963 311963 311963
       492 311964 311964 311964 311964
       493 311966 311966 311966 311966
       494 311969 311969 311969 311969
       495 311974 311974 311974 311974
       496 311975 311975 311975 311975
       497 311976 311976 311976 311976
       498 311977 311977 311977 311977
       499 311981 311981 311981 311981
       500 311982 311982 311982 311982
       501 311993 311993 311993 311993
       502 311994 311994 311994 311994
       503 311995 311995 311995 311995
       504 311996 311996 311996 311996
       505 312000 312000 312000 312000
       506 312001 312001 312001 312001
       507 312003 312003 312003 312003
       508 312006 312006 312006 312006
       509 312011 312011 312011 312011
       510 312012 312012 312012 312012
       511 312013 312013 312013 312013
       512 312014 312014 312014 312014
       513 312018 312018 312018 312018
       514 312019 312019 312019 312019
       515 312030 312030 312030 312030
       516 312031 312031 312031 312031
       517 312032 312032 312032 312032
       518 312033 312033 312033 312033
       519 312034 312034 312034 312034
       520 312038 312038 312038 312038
       521 312039 312039 312039 312039
       522 312040 312040 312040 312040
       523 312041 312041 312041 312041
       524 312049 312049 312049 312049
       525 312050 312050 312050 312050
       526 312051 312051 312051 312051
       527 312052 312052 312052 312052
       528 312056 312056 312056 312056
       529 312057 312057 312057 312057
       530 312068 312068 312068 312068
       531 312069 312069 312069 312069
       532 312070 312070 312070 312070
       533 312071 312071 312071 312071
       534 312072 312072 312072 312072
       535 312076 312076 312076 312076
       536 312077 312077 312077 312077
       537 312078 312078 312078 312078
       538 312081 312081 312081 312081
       539 312086 312086 312086 312086
       540 312087 312087 312087 312087
       541 312088 312088 312088 312088
       542 312089 312089 312089 312089
       543 312093 312093 312093 312093
       544 312094 312094 312094 312094
       545 312100 312100 312100 312100
       546 312104 312104 312104 312104
       547 312105 312105 312105 312105
       548 312106 312106 312106 312106
       549 312107 312107 312107 312107
       550 312108 312108 312108 312108
       551 312112 312112 312112 312112
       552 312113 312113 312113 312113
       553 312115 312115 312115 312115
       554 312118 312118 312118 312118
       555 312123 312123 312123 312123
       556 312124 312124 312124 312124
       557 312125 312125 312125 312125
       558 312126 312126 312126 312126
       559 312130 312130 312130 312130
       560 312131 312131 312131 312131
       561 312137 312137 312137 312137
       562 312139 312139 312139 312139
       563 312142 312142 312142 312142
       564 312143 312143 312143 312143
       565 312144 312144 312144 312144
       566 312145 312145 312145 312145
       567 312149 312149 312149 312149
       568 312150 312150 312150 312150
       569 312152 312152 312152 312152
       570 312155 312155 312155 312155
       571 312160 312160 312160 312160
       572 312161 312161 312161 312161
       573 312162 312162 312162 312162
       574 312163 312163 312163 312163
       575 312167 312167 312167 312167
       576 312168 312168 312168 312168
       577 312178 312178 312178 312178
       578 312179 312179 312179 312179
       579 312180 312180 312180 312180
       580 312181 312181 312181 312181
       581 312182 312182 312182 312182
       582 312185 312185 312185 312185
       583 312186 312186 312186 312186
       584 312188 312188 312188 312188
       585 312191 312191 312191 312191
       586 312196 312196 312196 312196
       587 312197 312197 312197 312197
       588 312198 312198 312198 312198
       589 312199 312199 312199 312199
       590 312203 312203 312203 312203
       591 312204 312204 312204 312204
       592 312213 312213 312213 312213
       593 312214 312214 312214 312214
       594 312215 312215 312215 312215
       595 312216 312216 312216 312216
       596 312217 312217 312217 312217
       597 312221 312221 312221 312221
       598 312222 312222 312222 312222
       599 312224 312224 312224 312224
       600 312227 312227 312227 312227
       601 312232 312232 312232 312232
       602 312233 312233 312233 312233
       603 312234 312234 312234 312234
       604 312235 312235 312235 312235
       605 312239 312239 312239 312239
       606 312240 312240 312240 312240
       607 312249 312249 312249 312249
       608 312250 312250 312250 312250
       609 312251 312251 312251 312251
       610 312252 312252 312252 312252
       611 312253 312253 312253 312253
       612 312254 312254 312254 312254
       613 312257 312257 312257 312257
       614 312259 312259 312259 312259
       615 312266 312266 312266 312266
       616 312267 312267 312267 312267
       617 312268 312268 312268 312268
       618 312273 312273 312273 312273
       619 312274 312274 312274 312274
       620 312284 312284 312284 312284
       621 312285 312285 312285 312285
       622 312286 312286 312286 312286
       623 312287 312287 312287 312287
       624 312288 312288 312288 312288
       625 312291 312291 312291 312291
       626 312296 312296 312296 312296
       627 312301 312301 312301 312301
       628 312302 312302 312302 312302
       629 312303 312303 312303 312303
       630 312308 312308 312308 312308
       631 312309 312309 312309 312309
       632 312318 312318 312318 312318
       633 312319 312319 312319 312319
       634 312320 312320 312320 312320
       635 312321 312321 312321 312321
       636 312322 312322 312322 312322
       637 312323 312323 312323 312323
       638 312327 312327 312327 312327
       639 312332 312332 312332 312332
       640 312337 312337 312337 312337
       641 312338 312338 312338 312338
       642 312339 312339 312339 312339
       643 312344 312344 312344 312344
       644 312345 312345 312345 312345
       645 312355 312355 312355 312355
       646 312356 312356 312356 312356
       647 312357 312357 312357 312357
       648 312358 312358 312358 312358
       649 312359 312359 312359 312359
       650 312360 312360 312360 312360
       651 312364 312364 312364 312364
       652 312369 312369 312369 312369
       653 312374 312374 312374 312374
       654 312375 312375 312375 312375
       655 312376 312376 312376 312376
       656 312381 312381 312381 312381
       657 312382 312382 312382 312382
       658 312391 312391 312391 312391
       659 312392 312392 312392 312392
       660 312393 312393 312393 312393
       661 312394 312394 312394 312394
       662 312395 312395 312395 312395
       663 312396 312396 312396 312396
       664 312400 312400 312400 312400
       665 312403 312403 312403 312403
       666 312410 312410 312410 312410
       667 312411 312411 312411 312411
       668 312412 312412 312412 312412
       669 312417 312417 312417 312417
       670 312418 312418 312418 312418
       671 312426 312426 312426 312426
       672 312427 312427 312427 312427
       673 312428 312428 312428 312428
       674 312429 312429 312429 312429
       675 312430 312430 312430 312430
       676 312431 312431 312431 312431
       677 312435 312435 312435 312435
       678 312440 312440 312440 312440
       679 312445 312445 312445 312445
       680 312446 312446 312446 312446
       681 312447 312447 312447 312447
       682 312452 312452 312452 312452
       683 312453 312453 312453 312453
       684 312460 312460 312460 312460
       685 312461 312461 312461 312461
       686 312464 312464 312464 312464
       687 312465 312465 312465 312465
       688 312466 312466 312466 312466
       689 312467 312467 312467 312467
       690 312471 312471 312471 312471
       691 312476 312476 312476 312476
       692 312481 312481 312481 312481
       693 312482 312482 312482 312482
       694 312483 312483 312483 312483
       695 312488 312488 312488 312488
       696 312489 312489 312489 312489
       697 312495 312495 312495 312495
       698 312500 312500 312500 312500
       699 312501 312501 312501 312501
       700 312502 312502 312502 312502
       701 312503 312503 312503 312503
       702 312504 312504 312504 312504
       703 312508 312508 312508 312508
       704 312513 312513 312513 312513
       705 312518 312518 312518 312518
       706 312519 312519 312519 312519
       707 312520 312520 312520 312520
       708 312525 312525 312525 312525
       709 312526 312526 312526 312526
       710 312537 312537 312537 312537
       711 312538 312538 312538 312538
       712 312539 312539 312539 312539
       713 312540 312540 312540 312540
       714 312542 312542 312542 312542
       715 312546 312546 312546 312546
       716 312549 312549 312549 312549
       717 312555 312555 312555 312555
       718 312556 312556 312556 312556
       719 312557 312557 312557 312557
       720 312562 312562 312562 312562
       721 312563 312563 312563 312563
       722 312574 312574 312574 312574
       723 312575 312575 312575 312575
       724 312576 312576 312576 312576
       725 312577 312577 312577 312577
       726 312579 312579 312579 312579
       727 312583 312583 312583 312583
       728 312588 312588 312588 312588
       729 312590 312590 312590 312590
       730 312593 312593 312593 312593
       731 312594 312594 312594 312594
       732 312595 312595 312595 312595
       733 312600 312600 312600 312600
       734 312601 312601 312601 312601
       735 312613 312613 312613 312613
       736 312614 312614 312614 312614
       737 312615 312615 312615 312615
       738 312617 312617 312617 312617
       739 312621 312621 312621 312621
       740 312626 312626 312626 312626
       741 312631 312631 312631 312631
       742 312632 312632 312632 312632
       743 312633 312633 312633 312633
       744 312638 312638 312638 312638
       745 312639 312639 312639 312639
       746 312645 312645 312645 312645
       747 312648 312648 312648 312648
       748 312649 312649 312649 312649
       749 312651 312651 312651 312651
       750 312653 312653 312653 312653
       751 312657 312657 312657 312657
       752 312662 312662 312662 312662
       753 312667 312667 312667 312667
       754 312668 312668 312668 312668
       755 312669 312669 312669 312669
       756 312674 312674 312674 312674
       757 312675 312675 312675 312675
       758 312681 312681 312681 312681
       759 312684 312684 312684 312684
       760 312687 312687 312687 312687
       761 312688 312688 312688 312688
       762 312689 312689 312689 312689
       763 312693 312693 312693 312693
       764 312698 312698 312698 312698
       765 312703 312703 312703 312703
       766 312704 312704 312704 312704
       767 312705 312705 312705 312705
       768 312710 312710 312710 312710
       769 312711 312711 312711 312711
       770 312718 312718 312718 312718
       771 312720 312720 312720 312720
       772 312721 312721 312721 312721
       773 312723 312723 312723 312723
       774 312727 312727 312727 312727
       775 312732 312732 312732 312732
       776 312737 312737 312737 312737
       777 312738 312738 312738 312738
       778 312739 312739 312739 312739
       779 312744 312744 312744 312744
       780 312745 312745 312745 312745
       781 312751 312751 312751 312751
       782 312753 312753 312753 312753
       783 312754 312754 312754 312754
       784 312756 312756 312756 312756
       785 312760 312760 312760 312760
       786 312761 312761 312761 312761
       787 312770 312770 312770 312770
       788 312771 312771 312771 312771
       789 312772 312772 312772 312772
       790 312777 312777 312777 312777
       791 312778 312778 312778 312778
       792 312785 312785 312785 312785
       793 312787 312787 312787 312787
       794 312788 312788 312788 312788
       795 312790 312790 312790 312790
       796 312794 312794 312794 312794
       797 312799 312799 312799 312799
       798 312801 312801 312801 312801
       799 312804 312804 312804 312804
       800 312805 312805 312805 312805
       801 312806 312806 312806 312806
       802 312811 312811 312811 312811
       803 312812 312812 312812 312812
       804 312821 312821 312821 312821
       805 312823 312823 312823 312823
       806 312824 312824 312824 312824
       807 312826 312826 312826 312826
       808 312830 312830 312830 312830
       809 312835 312835 312835 312835
       810 312837 312837 312837 312837
       811 312840 312840 312840 312840
       812 312841 312841 312841 312841
       813 312842 312842 312842 312842
       814 312847 312847 312847 312847
       815 312848 312848 312848 312848
       816 312860 312860 312860 312860
       817 312861 312861 312861 312861
       818 312862 312862 312862 312862
       819 312863 312863 312863 312863
       820 312866 312866 312866 312866
       821 312870 312870 312870 312870
       822 312872 312872 312872 312872
       823 312875 312875 312875 312875
       824 312876 312876 312876 312876
       825 312877 312877 312877 312877
       826 312882 312882 312882 312882
       827 312883 312883 312883 312883
       828 312891 312891 312891 312891
       829 312892 312892 312892 312892
       830 312895 312895 312895 312895
       831 312897 312897 312897 312897
       832 312898 312898 312898 312898
       833 312900 312900 312900 312900
       834 312904 312904 312904 312904
       835 312910 312910 312910 312910
       836 312913 312913 312913 312913
       837 312914 312914 312914 312914
       838 312915 312915 312915 312915
       839 312920 312920 312920 312920
       840 312921 312921 312921 312921
       841 312927 312927 312927 312927
       842 312931 312931 312931 312931
       843 312933 312933 312933 312933
       844 312934 312934 312934 312934
       845 312936 312936 312936 312936
       846 312940 312940 312940 312940
       847 312946 312946 312946 312946
       848 312949 312949 312949 312949
       849 312950 312950 312950 312950
       850 312951 312951 312951 312951
       851 312956 312956 312956 312956
       852 312957 312957 312957 312957
       853 312966 312966 312966 312966
       854 312968 312968 312968 312968
       855 312969 312969 312969 312969
       856 312971 312971 312971 312971
       857 312975 312975 312975 312975
       858 312982 312982 312982 312982
       859 312985 312985 312985 312985
       860 312986 312986 312986 312986
       861 312987 312987 312987 312987
       862 312992 312992 312992 312992
       863 312993 312993 312993 312993
       864 312999 312999 312999 312999
       865 313003 313003 313003 313003
       866 313004 313004 313004 313004
       867 313006 313006 313006 313006
       868 313008 313008 313008 313008
       869 313018 313018 313018 313018
       870 313021 313021 313021 313021
       871 313022 313022 313022 313022
       872 313023 313023 313023 313023
       873 313028 313028 313028 313028
       874 313029 313029 313029 313029
       875 313035 313035 313035 313035
       876 313037 313037 313037 313037
       877 313041 313041 313041 313041
       878 313042 313042 313042 313042
       879 313044 313044 313044 313044
       880 313046 313046 313046 313046
       881 313057 313057 313057 313057
       882 313060 313060 313060 313060
       883 313061 313061 313061 313061
       884 313062 313062 313062 313062
       885 313067 313067 313067 313067
       886 313068 313068 313068 313068
       887 313075 313075 313075 313075
       888 313079 313079 313079 313079
       889 313080 313080 313080 313080
       890 313082 313082 313082 313082
       891 313084 313084 313084 313084
       892 313095 313095 313095 313095
       893 313099 313099 313099 313099
       894 313100 313100 313100 313100
       895 313103 313103 313103 313103
       896 313105 313105 313105 313105
       897 313106 313106 313106 313106
       898 313113 313113 313113 313113
       899 313114 313114 313114 313114
       900 313117 313117 313117 313117
       901 313119 313119 313119 313119
       902 313121 313121 313121 313121
       903 313132 313132 313132 313132
       904 313135 313135 313135 313135
       905 313136 313136 313136 313136
       906 313137 313137 313137 313137
       907 313142 313142 313142 313142
       908 313143 313143 313143 313143
       909 313152 313152 313152 313152
       910 313155 313155 313155 313155
       911 313156 313156 313156 313156
       912 313158 313158 313158 313158
       913 313160 313160 313160 313160
       914 313170 313170 313170 313170
       915 313173 313173 313173 313173
       916 313174 313174 313174 313174
       917 313175 313175 313175 313175
       918 313180 313180 313180 313180
       919 313181 313181 313181 313181
       920 313187 313187 313187 313187
       921 313190 313190 313190 313190
       922 313191 313191 313191 313191
       923 313193 313193 313193 313193
       924 313195 313195 313195 313195
       925 313205 313205 313205 313205
       926 313208 313208 313208 313208
       927 313209 313209 313209 313209
       928 313210 313210 313210 313210
       929 313215 313215 313215 313215
       930 313216 313216 313216 313216
       931 313224 313224 313224 313224
       932 313226 313226 313226 313226
       933 313227 313227 313227 313227
       934 313229 313229 313229 313229
       935 313231 313231 313231 313231
       936 313242 313242 313242 313242
       937 313245 313245 313245 313245
       938 313246 313246 313246 313246
       939 313247 313247 313247 313247
       940 313252 313252 313252 313252
       941 313253 313253 313253 313253
       942 313259 313259 313259 313259
       943 313260 313260 313260 313260
       944 313263 313263 313263 313263
       945 313264 313264 313264 313264
       946 313266 313266 313266 313266
       947 313268 313268 313268 313268
       948 313278 313278 313278 313278
       949 313281 313281 313281 313281
       950 313282 313282 313282 313282
       951 313283 313283 313283 313283
       952 313288 313288 313288 313288
       953 313289 313289 313289 313289
       954 313297 313297 313297 313297
       955 313298 313298 313298 313298
       956 313300 313300 313300 313300
       957 313303 313303 313303 313303
       958 313313 313313 313313 313313
       959 313316 313316 313316 313316
       960 313317 313317 313317 313317
       961 313318 313318 313318 313318
       962 313323 313323 313323 313323
       963 313324 313324 313324 313324
       964 313330 313330 313330 313330
       965 313336 313336 313336 313336
       966 313337 313337 313337 313337
       967 313339 313339 313339 313339
       968 313341 313341 313341 313341
       969 313352 313352 313352 313352
       970 313356 313356 313356 313356
       971 313357 313357 313357 313357
       972 313362 313362 313362 313362
       973 313363 313363 313363 313363
       974 313373 313373 313373 313373
       975 313374 313374 313374 313374
       976 313376 313376 313376 313376
       977 313378 313378 313378 313378
       978 313389 313389 313389 313389
       979 313393 313393 313393 313393
       980 313394 313394 313394 313394
       981 313399 313399 313399 313399
       982 313406 313406 313406 313406
       983 313409 313409 313409 313409
       984 313410 313410 313410 313410
       985 313412 313412 313412 313412
       986 313424 313424 313424 313424
       987 313428 313428 313428 313428
       988 313429 313429 313429 313429
       989 313434 313434 313434 313434
       990 313435 313435 313435 313435
       991 313442 313442 313442 313442
       992 313445 313445 313445 313445
       993 313446 313446 313446 313446
       994 313448 313448 313448 313448
       995 313460 313460 313460 313460
       996 313464 313464 313464 313464
       997 313465 313465 313465 313465
       998 313470 313470 313470 313470
       999 313471 313471 313471 313471
       1000 313482 313482 313482 313482
       1001 313483 313483 313483 313483
       1002 313485 313485 313485 313485
       1003 313497 313497 313497 313497
       1004 313501 313501 313501 313501
       1005 313502 313502 313502 313502
       1006 313507 313507 313507 313507
       1007 313508 313508 313508 313508
       1008 313514 313514 313514 313514
       1009 313515 313515 313515 313515
       1010 313522 313522 313522 313522
       1011 313524 313524 313524 313524
       1012 313527 313527 313527 313527
       1013 313537 313537 313537 313537
       1014 313542 313542 313542 313542
       1015 313547 313547 313547 313547
       1016 313548 313548 313548 313548
       1017 313558 313558 313558 313558
       1018 313559 313559 313559 313559
       1019 313561 313561 313561 313561
       1020 313574 313574 313574 313574
       1021 313579 313579 313579 313579
       1022 313584 313584 313584 313584
       1023 313585 313585 313585 313585
       1024 313593 313593 313593 313593
       1025 313594 313594 313594 313594
       1026 313596 313596 313596 313596
       1027 313609 313609 313609 313609
       1028 313614 313614 313614 313614
       1029 313619 313619 313619 313619
       1030 313620 313620 313620 313620
       1031 313631 313631 313631 313631
       1032 313632 313632 313632 313632
       1033 313634 313634 313634 313634
       1034 313646 313646 313646 313646
       1035 313651 313651 313651 313651
       1036 313656 313656 313656 313656
       1037 313657 313657 313657 313657
       1038 313668 313668 313668 313668
       1039 313669 313669 313669 313669
       1040 313671 313671 313671 313671
       1041 313683 313683 313683 313683
       1042 313688 313688 313688 313688
       1043 313693 313693 313693 313693
       1044 313694 313694 313694 313694
       1045 313703 313703 313703 313703
       1046 313704 313704 313704 313704
       1047 313706 313706 313706 313706
       1048 313718 313718 313718 313718
       1049 313723 313723 313723 313723
       1050 313728 313728 313728 313728
       1051 313729 313729 313729 313729
       1052 313741 313741 313741 313741
       1053 313742 313742 313742 313742
       1054 313744 313744 313744 313744
       1055 313757 313757 313757 313757
       1056 313762 313762 313762 313762
       1057 313767 313767 313767 313767
       1058 313768 313768 313768 313768
       1059 313779 313779 313779 313779
       1060 313780 313780 313780 313780
       1061 313782 313782 313782 313782
       1062 313794 313794 313794 313794
       1063 313799 313799 313799 313799
       1064 313804 313804 313804 313804
       1065 313805 313805 313805 313805
       1066 313815 313815 313815 313815
       1067 313818 313818 313818 313818
       1068 313830 313830 313830 313830
       1069 313835 313835 313835 313835
       1070 313836 313836 313836 313836
       1071 313840 313840 313840 313840
       1072 313841 313841 313841 313841
       1073 313847 313847 313847 313847
       1074 313848 313848 313848 313848
       1075 313853 313853 313853 313853
       1076 313855 313855 313855 313855
       1077 313867 313867 313867 313867
       1078 313872 313872 313872 313872
       1079 313873 313873 313873 313873
       1080 313877 313877 313877 313877
       1081 313878 313878 313878 313878
       1082 313886 313886 313886 313886
       1083 313890 313890 313890 313890
       1084 313891 313891 313891 313891
       1085 313905 313905 313905 313905
       1086 313910 313910 313910 313910
       1087 313911 313911 313911 313911
       1088 313915 313915 313915 313915
       1089 313916 313916 313916 313916
       1090 313926 313926 313926 313926
       1091 313927 313927 313927 313927
       1092 313929 313929 313929 313929
       1093 313941 313941 313941 313941
       1094 313946 313946 313946 313946
       1095 313947 313947 313947 313947
       1096 313951 313951 313951 313951
       1097 313952 313952 313952 313952
       1098 313958 313958 313958 313958
       1099 313963 313963 313963 313963
       1100 313964 313964 313964 313964
       1101 313973 313973 313973 313973
       1102 313977 313977 313977 313977
       1103 313980 313980 313980 313980
       1104 313982 313982 313982 313982
       1105 313983 313983 313983 313983
       1106 313986 313986 313986 313986
       1107 313987 313987 313987 313987
       1108 313998 313998 313998 313998
       1109 314001 314001 314001 314001
       1110 314002 314002 314002 314002
       1111 314005 314005 314005 314005
       1112 314010 314010 314010 314010
       1113 314014 314014 314014 314014
       1114 314017 314017 314017 314017
       1115 314019 314019 314019 314019
       1116 314020 314020 314020 314020
       1117 314024 314024 314024 314024
       1118 314030 314030 314030 314030
       1119 314033 314033 314033 314033
       1120 314038 314038 314038 314038
       1121 314040 314040 314040 314040
       1122 314041 314041 314041 314041
       1123 314044 314044 314044 314044
       1124 314049 314049 314049 314049
       1125 314053 314053 314053 314053
       1126 314056 314056 314056 314056
       1127 314058 314058 314058 314058
       1128 314059 314059 314059 314059
       1129 314063 314063 314063 314063
       1130 314064 314064 314064 314064
       1131 314071 314071 314071 314071
       1132 314076 314076 314076 314076
       1133 314079 314079 314079 314079
       1134 314080 314080 314080 314080
       1135 314083 314083 314083 314083
       1136 314088 314088 314088 314088
       1137 314092 314092 314092 314092
       1138 314096 314096 314096 314096
       1139 314097 314097 314097 314097
       1140 314101 314101 314101 314101
       1141 314102 314102 314102 314102
       1142 314108 314108 314108 314108
       1143 314112 314112 314112 314112
       1144 314113 314113 314113 314113
       1145 314116 314116 314116 314116
       1146 314119 314119 314119 314119
       1147 314124 314124 314124 314124
       1148 314128 314128 314128 314128
       1149 314131 314131 314131 314131
       1150 314133 314133 314133 314133
       1151 314134 314134 314134 314134
       1152 314138 314138 314138 314138
       1153 314139 314139 314139 314139
       1154 314146 314146 314146 314146
       1155 314151 314151 314151 314151
       1156 314153 314153 314153 314153
       1157 314154 314154 314154 314154
       1158 314157 314157 314157 314157
       1159 314162 314162 314162 314162
       1160 314166 314166 314166 314166
       1161 314169 314169 314169 314169
       1162 314171 314171 314171 314171
       1163 314172 314172 314172 314172
       1164 314176 314176 314176 314176
       1165 314177 314177 314177 314177
       1166 314187 314187 314187 314187
       1167 314188 314188 314188 314188
       1168 314191 314191 314191 314191
       1169 314194 314194 314194 314194
       1170 314199 314199 314199 314199
       1171 314203 314203 314203 314203
       1172 314206 314206 314206 314206
       1173 314208 314208 314208 314208
       1174 314209 314209 314209 314209
       1175 314213 314213 314213 314213
       1176 314214 314214 314214 314214
       1177 314224 314224 314224 314224
       1178 314227 314227 314227 314227
       1179 314228 314228 314228 314228
       1180 314231 314231 314231 314231
       1181 314236 314236 314236 314236
       1182 314240 314240 314240 314240
       1183 314243 314243 314243 314243
       1184 314245 314245 314245 314245
       1185 314246 314246 314246 314246
       1186 314250 314250 314250 314250
       1187 314251 314251 314251 314251
       1188 314257 314257 314257 314257
       1189 314258 314258 314258 314258
       1190 314263 314263 314263 314263
       1191 314266 314266 314266 314266
       1192 314269 314269 314269 314269
       1193 314274 314274 314274 314274
       1194 314278 314278 314278 314278
       1195 314281 314281 314281 314281
       1196 314283 314283 314283 314283
       1197 314284 314284 314284 314284
       1198 314288 314288 314288 314288
       1199 314289 314289 314289 314289
       1200 314295 314295 314295 314295
       1201 314300 314300 314300 314300
       1202 314302 314302 314302 314302
       1203 314304 314304 314304 314304
       1204 314307 314307 314307 314307
       1205 314312 314312 314312 314312
       1206 314316 314316 314316 314316
       1207 314319 314319 314319 314319
       1208 314321 314321 314321 314321
       1209 314322 314322 314322 314322
       1210 314326 314326 314326 314326
       1211 314327 314327 314327 314327
       1212 314340 314340 314340 314340
       1213 314343 314343 314343 314343
       1214 314344 314344 314344 314344
       1215 314347 314347 314347 314347
       1216 314352 314352 314352 314352
       1217 314356 314356 314356 314356
       1218 314359 314359 314359 314359
       1219 314361 314361 314361 314361
       1220 314362 314362 314362 314362
       1221 314366 314366 314366 314366
       1222 314367 314367 314367 314367
       1223 314380 314380 314380 314380
       1224 314381 314381 314381 314381
       1225 314384 314384 314384 314384
       1226 314392 314392 314392 314392
       1227 314393 314393 314393 314393
       1228 314396 314396 314396 314396
       1229 314398 314398 314398 314398
       1230 314399 314399 314399 314399
       1231 314403 314403 314403 314403
       1232 314404 314404 314404 314404
       1233 314410 314410 314410 314410
       1234 314417 314417 314417 314417
       1235 314418 314418 314418 314418
       1236 314421 314421 314421 314421
       1237 314424 314424 314424 314424
       1238 314429 314429 314429 314429
       1239 314433 314433 314433 314433
       1240 314436 314436 314436 314436
       1241 314438 314438 314438 314438
       1242 314439 314439 314439 314439
       1243 314443 314443 314443 314443
       1244 314444 314444 314444 314444
       1245 314455 314455 314455 314455
       1246 314458 314458 314458 314458
       1247 314459 314459 314459 314459
       1248 314462 314462 314462 314462
       1249 314467 314467 314467 314467
       1250 314471 314471 314471 314471
       1251 314474 314474 314474 314474
       1252 314476 314476 314476 314476
       1253 314477 314477 314477 314477
       1254 314481 314481 314481 314481
       1255 314482 314482 314482 314482
       1256 314495 314495 314495 314495
       1257 314498 314498 314498 314498
       1258 314499 314499 314499 314499
       1259 314502 314502 314502 314502
       1260 314510 314510 314510 314510
       1261 314511 314511 314511 314511
       1262 314514 314514 314514 314514
       1263 314516 314516 314516 314516
       1264 314517 314517 314517 314517
       1265 314521 314521 314521 314521
       1266 314522 314522 314522 314522
       1267 314528 314528 314528 314528
       1268 314533 314533 314533 314533
       1269 314536 314536 314536 314536
       1270 314537 314537 314537 314537
       1271 314540 314540 314540 314540
       1272 314545 314545 314545 314545
       1273 314549 314549 314549 314549
       1274 314552 314552 314552 314552
       1275 314554 314554 314554 314554
       1276 314555 314555 314555 314555
       1277 314559 314559 314559 314559
       1278 314560 314560 314560 314560
       1279 314566 314566 314566 314566
       1280 314572 314572 314572 314572
       1281 314575 314575 314575 314575
       1282 314576 314576 314576 314576
       1283 314579 314579 314579 314579
       1284 314584 314584 314584 314584
       1285 314588 314588 314588 314588
       1286 314591 314591 314591 314591
       1287 314593 314593 314593 314593
       1288 314594 314594 314594 314594
       1289 314598 314598 314598 314598
       1290 314599 314599 314599 314599
       1291 314608 314608 314608 314608
       1292 314611 314611 314611 314611
       1293 314612 314612 314612 314612
       1294 314615 314615 314615 314615
       1295 314620 314620 314620 314620
       1296 314624 314624 314624 314624
       1297 314627 314627 314627 314627
       1298 314629 314629 314629 314629
       1299 314630 314630 314630 314630
       1300 314634 314634 314634 314634
       1301 314635 314635 314635 314635
       1302 314641 314641 314641 314641
       1303 314646 314646 314646 314646
       1304 314647 314647 314647 314647
       1305 314650 314650 314650 314650
       1306 314655 314655 314655 314655
       1307 314659 314659 314659 314659
       1308 314662 314662 314662 314662
       1309 314664 314664 314664 314664
       1310 314665 314665 314665 314665
       1311 314669 314669 314669 314669
       1312 314670 314670 314670 314670
       1313 314676 314676 314676 314676
       1314 314683 314683 314683 314683
       1315 314686 314686 314686 314686
       1316 314687 314687 314687 314687
       1317 314690 314690 314690 314690
       1318 314694 314694 314694 314694
       1319 314698 314698 314698 314698
       1320 314701 314701 314701 314701
       1321 314703 314703 314703 314703
       1322 314704 314704 314704 314704
       1323 314708 314708 314708 314708
       1324 314709 314709 314709 314709
       1325 314710 314710 314710 314710
       1326 314719 314719 314719 314719
       1327 314724 314724 314724 314724
       1328 314725 314725 314725 314725
       1329 314728 314728 314728 314728
       1330 314733 314733 314733 314733
       1331 314737 314737 314737 314737
       1332 314740 314740 314740 314740
       1333 314742 314742 314742 314742
       1334 314743 314743 314743 314743
       1335 314747 314747 314747 314747
       1336 314748 314748 314748 314748
       1337 314749 314749 314749 314749
       1338 314755 314755 314755 314755
       1339 314758 314758 314758 314758
       1340 314759 314759 314759 314759
       1341 314763 314763 314763 314763
       1342 314766 314766 314766 314766
       1343 314767 314767 314767 314767
       1344 314770 314770 314770 314770
       1345 314775 314775 314775 314775
       1346 314779 314779 314779 314779
       1347 314782 314782 314782 314782
       1348 314784 314784 314784 314784
       1349 314785 314785 314785 314785
       1350 314789 314789 314789 314789
       1351 314790 314790 314790 314790
       1352 314791 314791 314791 314791
       1353 314801 314801 314801 314801
       1354 314803 314803 314803 314803
       1355 314806 314806 314806 314806
       1356 314807 314807 314807 314807
       1357 314810 314810 314810 314810
       1358 314815 314815 314815 314815
       1359 314819 314819 314819 314819
       1360 314822 314822 314822 314822
       1361 314824 314824 314824 314824
       1362 314825 314825 314825 314825
       1363 314829 314829 314829 314829
       1364 314830 314830 314830 314830
       1365 314838 314838 314838 314838
       1366 314843 314843 314843 314843
       1367 314846 314846 314846 314846
       1368 314847 314847 314847 314847
       1369 314850 314850 314850 314850
       1370 314859 314859 314859 314859
       1371 314862 314862 314862 314862
       1372 314864 314864 314864 314864
       1373 314865 314865 314865 314865
       1374 314869 314869 314869 314869
       1375 314870 314870 314870 314870
       1376 314880 314880 314880 314880
       1377 314882 314882 314882 314882
       1378 314888 314888 314888 314888
       1379 314889 314889 314889 314889
       1380 314892 314892 314892 314892
       1381 314901 314901 314901 314901
       1382 314904 314904 314904 314904
       1383 314906 314906 314906 314906
       1384 314907 314907 314907 314907
       1385 314911 314911 314911 314911
       1386 314912 314912 314912 314912
       1387 314918 314918 314918 314918
       1388 314922 314922 314922 314922
       1389 314927 314927 314927 314927
       1390 314930 314930 314930 314930
       1391 314931 314931 314931 314931
       1392 314934 314934 314934 314934
       1393 314943 314943 314943 314943
       1394 314946 314946 314946 314946
       1395 314949 314949 314949 314949
       1396 314953 314953 314953 314953
       1397 314954 314954 314954 314954
       1398 314962 314962 314962 314962
       1399 314965 314965 314965 314965
       1400 314969 314969 314969 314969
       1401 314970 314970 314970 314970
       1402 314973 314973 314973 314973
       1403 314982 314982 314982 314982
       1404 314985 314985 314985 314985
       1405 314987 314987 314987 314987
       1406 314991 314991 314991 314991
       1407 314992 314992 314992 314992
       1408 314998 314998 314998 314998
       1409 315003 315003 315003 315003
       1410 315005 315005 315005 315005
       1411 315010 315010 315010 315010
       1412 315011 315011 315011 315011
       1413 315014 315014 315014 315014
       1414 315023 315023 315023 315023
       1415 315026 315026 315026 315026
       1416 315029 315029 315029 315029
       1417 315033 315033 315033 315033
       1418 315034 315034 315034 315034
       1419 315045 315045 315045 315045
       1420 315047 315047 315047 315047
       1421 315049 315049 315049 315049
       1422 315052 315052 315052 315052
       1423 315053 315053 315053 315053
       1424 315056 315056 315056 315056
       1425 315064 315064 315064 315064
       1426 315067 315067 315067 315067
       1427 315070 315070 315070 315070
       1428 315074 315074 315074 315074
       1429 315075 315075 315075 315075
       1430 315082 315082 315082 315082
       1431 315085 315085 315085 315085
       1432 315086 315086 315086 315086
       1433 315091 315091 315091 315091
       1434 315092 315092 315092 315092
       1435 315095 315095 315095 315095
       1436 315104 315104 315104 315104
       1437 315107 315107 315107 315107
       1438 315110 315110 315110 315110
       1439 315114 315114 315114 315114
       1440 315115 315115 315115 315115
       1441 315122 315122 315122 315122
       1442 315123 315123 315123 315123
       1443 315125 315125 315125 315125
       1444 315127 315127 315127 315127
       1445 315130 315130 315130 315130
       1446 315141 315141 315141 315141
       1447 315144 315144 315144 315144
       1448 315147 315147 315147 315147
       1449 315151 315151 315151 315151
       1450 315161 315161 315161 315161
       1451 315163 315163 315163 315163
       1452 315164 315164 315164 315164
       1453 315167 315167 315167 315167
       1454 315168 315168 315168 315168
       1455 315180 315180 315180 315180
       1456 315183 315183 315183 315183
       1457 315186 315186 315186 315186
       1458 315190 315190 315190 315190
       1459 315198 315198 315198 315198
       1460 315199 315199 315199 315199
       1461 315202 315202 315202 315202
       1462 315205 315205 315205 315205
       1463 315206 315206 315206 315206
       1464 315218 315218 315218 315218
       1465 315221 315221 315221 315221
       1466 315224 315224 315224 315224
       1467 315228 315228 315228 315228
       1468 315238 315238 315238 315238
       1469 315239 315239 315239 315239
       1470 315241 315241 315241 315241
       1471 315244 315244 315244 315244
       1472 315256 315256 315256 315256
       1473 315259 315259 315259 315259
       1474 315262 315262 315262 315262
       1475 315266 315266 315266 315266
       1476 315275 315275 315275 315275
       1477 315278 315278 315278 315278
       1478 315279 315279 315279 315279
       1479 315281 315281 315281 315281
       1480 315293 315293 315293 315293
       1481 315296 315296 315296 315296
       1482 315299 315299 315299 315299
       1483 315303 315303 315303 315303
       1484 315312 315312 315312 315312
       1485 315314 315314 315314 315314
       1486 315316 315316 315316 315316
       1487 315319 315319 315319 315319
       1488 315332 315332 315332 315332
       1489 315335 315335 315335 315335
       1490 315338 315338 315338 315338
       1491 315342 315342 315342 315342
       1492 315350 315350 315350 315350
       1493 315355 315355 315355 315355
       1494 315357 315357 315357 315357
       1495 315359 315359 315359 315359
       1496 315362 315362 315362 315362
       1497 315375 315375 315375 315375
       1498 315378 315378 315378 315378
       1499 315381 315381 315381 315381
       1500 315385 315385 315385 315385
       1501 315394 315394 315394 315394
       1502 315396 315396 315396 315396
       1503 315398 315398 315398 315398
       1504 315401 315401 315401 315401
       1505 315413 315413 315413 315413
       1506 315416 315416 315416 315416
       1507 315419 315419 315419 315419
       1508 315423 315423 315423 315423
       1509 315432 315432 315432 315432
       1510 315433 315433 315433 315433
       1511 315435 315435 315435 315435
       1512 315438 315438 315438 315438
       1513 315451 315451 315451 315451
       1514 315454 315454 315454 315454
       1515 315457 315457 315457 315457
       1516 315461 315461 315461 315461
       1517 315466 315466 315466 315466
       1518 315470 315470 315470 315470
       1519 315473 315473 315473 315473
       1520 315475 315475 315475 315475
       1521 315478 315478 315478 315478
       1522 315491 315491 315491 315491
       1523 315494 315494 315494 315494
       1524 315497 315497 315497 315497
       1525 315501 315501 315501 315501
       1526 315506 315506 315506 315506
       1527 315512 315512 315512 315512
       1528 315513 315513 315513 315513
       1529 315516 315516 315516 315516
       1530 315530 315530 315530 315530
       1531 315533 315533 315533 315533
       1532 315537 315537 315537 315537
       1533 315542 315542 315542 315542
       1534 315545 315545 315545 315545
       1535 315546 315546 315546 315546
       1536 315551 315551 315551 315551
       1537 315553 315553 315553 315553
       1538 315556 315556 315556 315556
       1539 315572 315572 315572 315572
       1540 315575 315575 315575 315575
       1541 315579 315579 315579 315579
       1542 315584 315584 315584 315584
       1543 315586 315586 315586 315586
       1544 315588 315588 315588 315588
       1545 315591 315591 315591 315591
       1546 315594 315594 315594 315594
       1547 315610 315610 315610 315610
       1548 315613 315613 315613 315613
       1549 315617 315617 315617 315617
       1550 315622 315622 315622 315622
       1551 315624 315624 315624 315624
       1552 315626 315626 315626 315626
       1553 315628 315628 315628 315628
       1554 315631 315631 315631 315631
       1555 315647 315647 315647 315647
       1556 315650 315650 315650 315650
       1557 315654 315654 315654 315654
       1558 315659 315659 315659 315659
       1559 315664 315664 315664 315664
       1560 315666 315666 315666 315666
       1561 315669 315669 315669 315669
       1562 315683 315683 315683 315683
       1563 315686 315686 315686 315686
       1564 315690 315690 315690 315690
       1565 315695 315695 315695 315695
       1566 315698 315698 315698 315698
       1567 315700 315700 315700 315700
       1568 315702 315702 315702 315702
       1569 315705 315705 315705 315705
       1570 315718 315718 315718 315718
       1571 315721 315721 315721 315721
       1572 315724 315724 315724 315724
       1573 315728 315728 315728 315728
       1574 315733 315733 315733 315733
       1575 315735 315735 315735 315735
       1576 315738 315738 315738 315738
       1577 315740 315740 315740 315740
       1578 315743 315743 315743 315743
       1579 315756 315756 315756 315756
       1580 315759 315759 315759 315759
       1581 315762 315762 315762 315762
       1582 315766 315766 315766 315766
       1583 315771 315771 315771 315771
       1584 315776 315776 315776 315776
       1585 315778 315778 315778 315778
       1586 315781 315781 315781 315781
       1587 315794 315794 315794 315794
       1588 315797 315797 315797 315797
       1589 315800 315800 315800 315800
       1590 315804 315804 315804 315804
       1591 315809 315809 315809 315809
       1592 315816 315816 315816 315816
       1593 315818 315818 315818 315818
       1594 315821 315821 315821 315821
       1595 315834 315834 315834 315834
       1596 315837 315837 315837 315837
       1597 315840 315840 315840 315840
       1598 315844 315844 315844 315844
       1599 315849 315849 315849 315849
       1600 315852 315852 315852 315852
       1601 315855 315855 315855 315855
       1602 315857 315857 315857 315857
       1603 315860 315860 315860 315860
       1604 315873 315873 315873 315873
       1605 315876 315876 315876 315876
       1606 315879 315879 315879 315879
       1607 315883 315883 315883 315883
       1608 315888 315888 315888 315888
       1609 315892 315892 315892 315892
       1610 315894 315894 315894 315894
       1611 315909 315909 315909 315909
       1612 315912 315912 315912 315912
       1613 315915 315915 315915 315915
       1614 315919 315919 315919 315919
       1615 315924 315924 315924 315924
       1616 315928 315928 315928 315928
       1617 315930 315930 315930 315930
       1618 315945 315945 315945 315945
       1619 315948 315948 315948 315948
       1620 315951 315951 315951 315951
       1621 315955 315955 315955 315955
       1622 315960 315960 315960 315960
       1623 315968 315968 315968 315968
       1624 315970 315970 315970 315970
       1625 315986 315986 315986 315986
       1626 315989 315989 315989 315989
       1627 315992 315992 315992 315992
       1628 315996 315996 315996 315996
       1629 316001 316001 316001 316001
       1630 316003 316003 316003 316003
       1631 316007 316007 316007 316007
       1632 316009 316009 316009 316009
       1633 316025 316025 316025 316025
       1634 316027 316027 316027 316027
       1635 316030 316030 316030 316030
       1636 316034 316034 316034 316034
       1637 316039 316039 316039 316039
       1638 316045 316045 316045 316045
       1639 316047 316047 316047 316047
       1640 316063 316063 316063 316063
       1641 316066 316066 316066 316066
       1642 316069 316069 316069 316069
       1643 316073 316073 316073 316073
       1644 316078 316078 316078 316078
       1645 316082 316082 316082 316082
       1646 316088 316088 316088 316088
       1647 316090 316090 316090 316090
       1648 316104 316104 316104 316104
       1649 316107 316107 316107 316107
       1650 316110 316110 316110 316110
       1651 316114 316114 316114 316114
       1652 316119 316119 316119 316119
       1653 316121 316121 316121 316121
       1654 316125 316125 316125 316125
       1655 316127 316127 316127 316127
       1656 316143 316143 316143 316143
       1657 316145 316145 316145 316145
       1658 316148 316148 316148 316148
       1659 316152 316152 316152 316152
       1660 316157 316157 316157 316157
       1661 316165 316165 316165 316165
       1662 316168 316168 316168 316168
       1663 316183 316183 316183 316183
       1664 316186 316186 316186 316186
       1665 316189 316189 316189 316189
       1666 316193 316193 316193 316193
       1667 316198 316198 316198 316198
       1668 316200 316200 316200 316200
       1669 316208 316208 316208 316208
       1670 316210 316210 316210 316210
       1671 316225 316225 316225 316225
       1672 316228 316228 316228 316228
       1673 316231 316231 316231 316231
       1674 316235 316235 316235 316235
       1675 316240 316240 316240 316240
       1676 316244 316244 316244 316244
       1677 316248 316248 316248 316248
       1678 316250 316250 316250 316250
       1679 316265 316265 316265 316265
       1680 316268 316268 316268 316268
       1681 316271 316271 316271 316271
       1682 316275 316275 316275 316275
       1683 316280 316280 316280 316280
       1684 316283 316283 316283 316283
       1685 316285 316285 316285 316285
       1686 316287 316287 316287 316287
       1687 316303 316303 316303 316303
       1688 316306 316306 316306 316306
       1689 316309 316309 316309 316309
       1690 316313 316313 316313 316313
       1691 316318 316318 316318 316318
       1692 316324 316324 316324 316324
       1693 316339 316339 316339 316339
       1694 316342 316342 316342 316342
       1695 316345 316345 316345 316345
       1696 316349 316349 316349 316349
       1697 316354 316354 316354 316354
       1698 316356 316356 316356 316356
       1699 316359 316359 316359 316359
       1700 316361 316361 316361 316361
       1701 316377 316377 316377 316377
       1702 316380 316380 316380 316380
       1703 316383 316383 316383 316383
       1704 316387 316387 316387 316387
       1705 316392 316392 316392 316392
       1706 316394 316394 316394 316394
       1707 316398 316398 316398 316398
       1708 316400 316400 316400 316400
       1709 316416 316416 316416 316416
       1710 316419 316419 316419 316419
       1711 316422 316422 316422 316422
       1712 316426 316426 316426 316426
       1713 316431 316431 316431 316431
       1714 316436 316436 316436 316436
       1715 316453 316453 316453 316453
       1716 316456 316456 316456 316456
       1717 316459 316459 316459 316459
       1718 316463 316463 316463 316463
       1719 316468 316468 316468 316468
       1720 316472 316472 316472 316472
       1721 316474 316474 316474 316474
       1722 316490 316490 316490 316490
       1723 316493 316493 316493 316493
       1724 316496 316496 316496 316496
       1725 316500 316500 316500 316500
       1726 316505 316505 316505 316505
       1727 316510 316510 316510 316510
       1728 316512 316512 316512 316512
       1729 316528 316528 316528 316528
       1730 316531 316531 316531 316531
       1731 316534 316534 316534 316534
       1732 316538 316538 316538 316538
       1733 316543 316543 316543 316543
       1734 316546 316546 316546 316546
       1735 316564 316564 316564 316564
       1736 316567 316567 316567 316567
       1737 316570 316570 316570 316570
       1738 316574 316574 316574 316574
       1739 316579 316579 316579 316579
       1740 316587 316587 316587 316587
       1741 316605 316605 316605 316605
       1742 316608 316608 316608 316608
       1743 316611 316611 316611 316611
       1744 316615 316615 316615 316615
       1745 316620 316620 316620 316620
       1746 316627 316627 316627 316627
       1747 316628 316628 316628 316628
       1748 316629 316629 316629 316629
       1749 316630 316630 316630 316630
       1750 316648 316648 316648 316648
       1751 316651 316651 316651 316651
       1752 316654 316654 316654 316654
       1753 316658 316658 316658 316658
       1754 316663 316663 316663 316663
       1755 316666 316666 316666 316666
       1756 316684 316684 316684 316684
       1757 316687 316687 316687 316687
       1758 316690 316690 316690 316690
       1759 316694 316694 316694 316694
       1760 316699 316699 316699 316699
       1761 316704 316704 316704 316704
       1762 316721 316721 316721 316721
       1763 316724 316724 316724 316724
       1764 316727 316727 316727 316727
       1765 316731 316731 316731 316731
       1766 316736 316736 316736 316736
       1767 316741 316741 316741 316741
       1768 316759 316759 316759 316759
       1769 316762 316762 316762 316762
       1770 316765 316765 316765 316765
       1771 316769 316769 316769 316769
       1772 316774 316774 316774 316774
       1773 316782 316782 316782 316782
       1774 316799 316799 316799 316799
       1775 316802 316802 316802 316802
       1776 316805 316805 316805 316805
       1777 316809 316809 316809 316809
       1778 316814 316814 316814 316814
       1779 316818 316818 316818 316818
       1780 316820 316820 316820 316820
       1781 316838 316838 316838 316838
       1782 316841 316841 316841 316841
       1783 316844 316844 316844 316844
       1784 316848 316848 316848 316848
       1785 316853 316853 316853 316853
       1786 316857 316857 316857 316857
       1787 316859 316859 316859 316859
       1788 316876 316876 316876 316876
       1789 316879 316879 316879 316879
       1790 316882 316882 316882 316882
       1791 316886 316886 316886 316886
       1792 316891 316891 316891 316891
       1793 316894 316894 316894 316894
       1794 316896 316896 316896 316896
       1795 316914 316914 316914 316914
       1796 316917 316917 316917 316917
       1797 316920 316920 316920 316920
       1798 316924 316924 316924 316924
       1799 316929 316929 316929 316929
       1800 316932 316932 316932 316932
       1801 316934 316934 316934 316934
       1802 316935 316935 316935 316935
       1803 316954 316954 316954 316954
       1804 316957 316957 316957 316957
       1805 316960 316960 316960 316960
       1806 316964 316964 316964 316964
       1807 316969 316969 316969 316969
       1808 316973 316973 316973 316973
       1809 316974 316974 316974 316974
       1810 316991 316991 316991 316991
       1811 316994 316994 316994 316994
       1812 316997 316997 316997 316997
       1813 317001 317001 317001 317001
       1814 317006 317006 317006 317006
       1815 317010 317010 317010 317010
       1816 317011 317011 317011 317011
       1817 317029 317029 317029 317029
       1818 317032 317032 317032 317032
       1819 317035 317035 317035 317035
       1820 317039 317039 317039 317039
       1821 317044 317044 317044 317044
       1822 317048 317048 317048 317048
       1823 317049 317049 317049 317049
       1824 317067 317067 317067 317067
       1825 317070 317070 317070 317070
       1826 317072 317072 317072 317072
       1827 317073 317073 317073 317073
       1828 317077 317077 317077 317077
       1829 317082 317082 317082 317082
       1830 317086 317086 317086 317086
       1831 317087 317087 317087 317087
       1832 317105 317105 317105 317105
       1833 317108 317108 317108 317108
       1834 317110 317110 317110 317110
       1835 317111 317111 317111 317111
       1836 317114 317114 317114 317114
       1837 317119 317119 317119 317119
       1838 317124 317124 317124 317124
       1839 317125 317125 317125 317125
       1840 317141 317141 317141 317141
       1841 317144 317144 317144 317144
       1842 317146 317146 317146 317146
       1843 317147 317147 317147 317147
       1844 317151 317151 317151 317151
       1845 317156 317156 317156 317156
       1846 317160 317160 317160 317160
       1847 317161 317161 317161 317161
       1848 317162 317162 317162 317162
       1849 317177 317177 317177 317177
       1850 317180 317180 317180 317180
       1851 317182 317182 317182 317182
       1852 317183 317183 317183 317183
       1853 317187 317187 317187 317187
       1854 317192 317192 317192 317192
       1855 317194 317194 317194 317194
       1856 317196 317196 317196 317196
       1857 317199 317199 317199 317199
       1858 317201 317201 317201 317201
       1859 317202 317202 317202 317202
       1860 317218 317218 317218 317218
       1861 317221 317221 317221 317221
       1862 317223 317223 317223 317223
       1863 317224 317224 317224 317224
       1864 317228 317228 317228 317228
       1865 317233 317233 317233 317233
       1866 317242 317242 317242 317242
       1867 317243 317243 317243 317243
       1868 317244 317244 317244 317244
       1869 317261 317261 317261 317261
       1870 317264 317264 317264 317264
       1871 317266 317266 317266 317266
       1872 317267 317267 317267 317267
       1873 317271 317271 317271 317271
       1874 317276 317276 317276 317276
       1875 317279 317279 317279 317279
       1876 317281 317281 317281 317281
       1877 317282 317282 317282 317282
[...]
     number of failed tshell elements = 0
 Element deleted due to damage
      node  number 303544 deleted at time  3.4181E-05
      node  number 23250 deleted at time  3.4181E-05
     solid element 38758  failed at time  3.4181E-05
 f a i l e d   e l e m e n t   r e p o r t  time=  3.4181E-05
     number of failed solid  elements = 78
     number of failed beam   elements = 0
     number of failed shell  elements = 0
     number of failed tshell elements = 0
 f a i l e d   e l e m e n t   r e p o r t  time=  3.4247E-05
     number of failed solid  elements = 78
     number of failed beam   elements = 0
     number of failed shell  elements = 0
     number of failed tshell elements = 0
 Element deleted due to damage
     solid element 34116  failed at time  3.4293E-05
 f a i l e d   e l e m e n t   r e p o r t  time=  3.4293E-05
     number of failed solid  elements = 79
     number of failed beam   elements = 0
     number of failed shell  elements = 0
     number of failed tshell elements = 0
 f a i l e d   e l e m e n t   r e p o r t  time=  3.4326E-05
     number of failed solid  elements = 79
     number of failed beam   elements = 0
     number of failed shell  elements = 0
     number of failed tshell elements = 0
 f a i l e d   e l e m e n t   r e p o r t  time=  3.4364E-05
     number of failed solid  elements = 79
     number of failed beam   elements = 0
     number of failed shell  elements = 0
     number of failed tshell elements = 0
 f a i l e d   e l e m e n t   r e p o r t  time=  3.5084E-05
     number of failed solid  elements = 79
     number of failed beam   elements = 0
     number of failed shell  elements = 0
     number of failed tshell elements = 0
 f a i l e d   e l e m e n t   r e p o r t  time=  3.5418E-05
     number of failed solid  elements = 79
     number of failed beam   elements = 0
     number of failed shell  elements = 0
     number of failed tshell elements = 0
 f a i l e d   e l e m e n t   r e p o r t  time=  3.5431E-05
     number of failed solid  elements = 79
     number of failed beam   elements = 0
     number of failed shell  elements = 0
     number of failed tshell elements = 0
 f a i l e d   e l e m e n t   r e p o r t  time=  3.5569E-05
     number of failed solid  elements = 79
     number of failed beam   elements = 0
     number of failed shell  elements = 0
     number of failed tshell elements = 0
 f a i l e d   e l e m e n t   r e p o r t  time=  3.6050E-05
     number of failed solid  elements = 79
     number of failed beam   elements = 0
     number of failed shell  elements = 0
     number of failed tshell elements = 0
 f a i l e d   e l e m e n t   r e p o r t  time=  3.6294E-05
     number of failed solid  elements = 79
     number of failed beam   elements = 0
     number of failed shell  elements = 0
     number of failed tshell elements = 0
 f a i l e d   e l e m e n t   r e p o r t  time=  3.6494E-05
     number of failed solid  elements = 79
     number of failed beam   elements = 0
     number of failed shell  elements = 0
     number of failed tshell elements = 0
 f a i l e d   e l e m e n t   r e p o r t  time=  3.6756E-05
     number of failed solid  elements = 79
     number of failed beam   elements = 0
     number of failed shell  elements = 0
     number of failed tshell elements = 0
 Element deleted due to damage
     solid element 38735  failed at time  3.7561E-05
 f a i l e d   e l e m e n t   r e p o r t  time=  3.7561E-05
     number of failed solid  elements = 80
     number of failed beam   elements = 0
     number of failed shell  elements = 0
     number of failed tshell elements = 0
 f a i l e d   e l e m e n t   r e p o r t  time=  3.7563E-05
     number of failed solid  elements = 80
     number of failed beam   elements = 0
     number of failed shell  elements = 0
     number of failed tshell elements = 0
 f a i l e d   e l e m e n t   r e p o r t  time=  3.7571E-05
     number of failed solid  elements = 80
     number of failed beam   elements = 0
     number of failed shell  elements = 0
     number of failed tshell elements = 0
 f a i l e d   e l e m e n t   r e p o r t  time=  3.7609E-05
     number of failed solid  elements = 80
     number of failed beam   elements = 0
     number of failed shell  elements = 0
     number of failed tshell elements = 0
 f a i l e d   e l e m e n t   r e p o r t  time=  3.7770E-05
     number of failed solid  elements = 80
     number of failed beam   elements = 0
     number of failed shell  elements = 0
     number of failed tshell elements = 0
 f a i l e d   e l e m e n t   r e p o r t  time=  3.8106E-05
     number of failed solid  elements = 80
     number of failed beam   elements = 0
     number of failed shell  elements = 0
     number of failed tshell elements = 0
 f a i l e d   e l e m e n t   r e p o r t  time=  3.9043E-05
     number of failed solid  elements = 80
     number of failed beam   elements = 0
     number of failed shell  elements = 0
     number of failed tshell elements = 0
 f a i l e d   e l e m e n t   r e p o r t  time=  3.9117E-05
     number of failed solid  elements = 80
     number of failed beam   elements = 0
     number of failed shell  elements = 0
     number of failed tshell elements = 0
 f a i l e d   e l e m e n t   r e p o r t  time=  3.9670E-05
     number of failed solid  elements = 80
     number of failed beam   elements = 0
     number of failed shell  elements = 0
     number of failed tshell elements = 0
 f a i l e d   e l e m e n t   r e p o r t  time=  3.9759E-05
     number of failed solid  elements = 80
     number of failed beam   elements = 0
     number of failed shell  elements = 0
     number of failed tshell elements = 0
 f a i l e d   e l e m e n t   r e p o r t  time=  4.0596E-05
     number of failed solid  elements = 80
     number of failed beam   elements = 0
     number of failed shell  elements = 0
     number of failed tshell elements = 0
 f a i l e d   e l e m e n t   r e p o r t  time=  4.0698E-05
     number of failed solid  elements = 80
     number of failed beam   elements = 0
     number of failed shell  elements = 0
     number of failed tshell elements = 0
 f a i l e d   e l e m e n t   r e p o r t  time=  4.0781E-05
     number of failed solid  elements = 80
     number of failed beam   elements = 0
     number of failed shell  elements = 0
     number of failed tshell elements = 0
 f a i l e d   e l e m e n t   r e p o r t  time=  4.2098E-05
     number of failed solid  elements = 80
     number of failed beam   elements = 0
     number of failed shell  elements = 0
     number of failed tshell elements = 0
 f a i l e d   e l e m e n t   r e p o r t  time=  4.2186E-05
     number of failed solid  elements = 80
     number of failed beam   elements = 0
     number of failed shell  elements = 0
     number of failed tshell elements = 0
 f a i l e d   e l e m e n t   r e p o r t  time=  4.2551E-05
     number of failed solid  elements = 80
     number of failed beam   elements = 0
     number of failed shell  elements = 0
     number of failed tshell elements = 0
 f a i l e d   e l e m e n t   r e p o r t  time=  4.2929E-05
     number of failed solid  elements = 80
     number of failed beam   elements = 0
     number of failed shell  elements = 0
     number of failed tshell elements = 0
 f a i l e d   e l e m e n t   r e p o r t  time=  4.3341E-05
     number of failed solid  elements = 80
     number of failed beam   elements = 0
     number of failed shell  elements = 0
     number of failed tshell elements = 0
 f a i l e d   e l e m e n t   r e p o r t  time=  4.5272E-05
     number of failed solid  elements = 80
     number of failed beam   elements = 0
     number of failed shell  elements = 0
     number of failed tshell elements = 0
 f a i l e d   e l e m e n t   r e p o r t  time=  4.6399E-05
     number of failed solid  elements = 80
     number of failed beam   elements = 0
     number of failed shell  elements = 0
     number of failed tshell elements = 0
 Element deleted due to damage
     solid element 36048  failed at time  4.6954E-05
 f a i l e d   e l e m e n t   r e p o r t  time=  4.6954E-05
     number of failed solid  elements = 81
     number of failed beam   elements = 0
     number of failed shell  elements = 0
     number of failed tshell elements = 0
 f a i l e d   e l e m e n t   r e p o r t  time=  4.7911E-05
     number of failed solid  elements = 81
     number of failed beam   elements = 0
     number of failed shell  elements = 0
     number of failed tshell elements = 0
 Element deleted due to damage
     solid element 32336  failed at time  4.7967E-05
 f a i l e d   e l e m e n t   r e p o r t  time=  4.7967E-05
     number of failed solid  elements = 82
     number of failed beam   elements = 0
     number of failed shell  elements = 0
     number of failed tshell elements = 0
 Element deleted due to damage
     solid element 35482  failed at time  4.8163E-05
 f a i l e d   e l e m e n t   r e p o r t  time=  4.8163E-05
     number of failed solid  elements = 83
     number of failed beam   elements = 0
     number of failed shell  elements = 0
     number of failed tshell elements = 0
 Element deleted due to damage
     solid element 39252  failed at time  4.9005E-05
 f a i l e d   e l e m e n t   r e p o r t  time=  4.9005E-05
     number of failed solid  elements = 84
     number of failed beam   elements = 0
     number of failed shell  elements = 0
     number of failed tshell elements = 0
 Element deleted due to damage
     solid element 31089  failed at time  5.1471E-05
 f a i l e d   e l e m e n t   r e p o r t  time=  5.1471E-05
     number of failed solid  elements = 85
     number of failed beam   elements = 0
     number of failed shell  elements = 0
     number of failed tshell elements = 0
 Element deleted due to damage
     solid element 30351  failed at time  5.2806E-05
 f a i l e d   e l e m e n t   r e p o r t  time=  5.2806E-05
     number of failed solid  elements = 86
     number of failed beam   elements = 0
     number of failed shell  elements = 0
     number of failed tshell elements = 0
 f a i l e d   e l e m e n t   r e p o r t  time=  5.4499E-05
     number of failed solid  elements = 86
     number of failed beam   elements = 0
     number of failed shell  elements = 0
     number of failed tshell elements = 0
 Element deleted due to damage
     solid element 34898  failed at time  5.5530E-05
 f a i l e d   e l e m e n t   r e p o r t  time=  5.5530E-05
     number of failed solid  elements = 87
     number of failed beam   elements = 0
     number of failed shell  elements = 0
     number of failed tshell elements = 0
 Element deleted due to damage
     solid element 38163  failed at time  5.5930E-05
 f a i l e d   e l e m e n t   r e p o r t  time=  5.5930E-05
     number of failed solid  elements = 88
     number of failed beam   elements = 0
     number of failed shell  elements = 0
     number of failed tshell elements = 0
 Element deleted due to damage
     solid element 34291  failed at time  5.6006E-05
 f a i l e d   e l e m e n t   r e p o r t  time=  5.6006E-05
     number of failed solid  elements = 89
     number of failed beam   elements = 0
     number of failed shell  elements = 0
     number of failed tshell elements = 0
 Element deleted due to damage
     solid element 39117  failed at time  5.7102E-05
 f a i l e d   e l e m e n t   r e p o r t  time=  5.7102E-05
     number of failed solid  elements = 90
     number of failed beam   elements = 0
     number of failed shell  elements = 0
     number of failed tshell elements = 0
 Element deleted due to damage
     solid element 38836  failed at time  5.7681E-05
 f a i l e d   e l e m e n t   r e p o r t  time=  5.7681E-05
     number of failed solid  elements = 91
     number of failed beam   elements = 0
     number of failed shell  elements = 0
     number of failed tshell elements = 0
 Element deleted due to damage
     solid element 37942  failed at time  5.8178E-05
 f a i l e d   e l e m e n t   r e p o r t  time=  5.8178E-05
     number of failed solid  elements = 92
     number of failed beam   elements = 0
     number of failed shell  elements = 0
     number of failed tshell elements = 0
 Element deleted due to damage
     solid element 30921  failed at time  5.9290E-05
 f a i l e d   e l e m e n t   r e p o r t  time=  5.9290E-05
     number of failed solid  elements = 93
     number of failed beam   elements = 0
     number of failed shell  elements = 0
     number of failed tshell elements = 0
 Element deleted due to damage
     solid element 31688  failed at time  5.9445E-05
 f a i l e d   e l e m e n t   r e p o r t  time=  5.9445E-05
     number of failed solid  elements = 94
     number of failed beam   elements = 0
     number of failed shell  elements = 0
     number of failed tshell elements = 0
 f a i l e d   e l e m e n t   r e p o r t  time=  5.9893E-05
     number of failed solid  elements = 94
     number of failed beam   elements = 0
     number of failed shell  elements = 0
     number of failed tshell elements = 0

 S t o r a g e   a l l o c a t i o n   

 Memory required to complete solution   :     277K
 Additional dynamically allocated memory:      30M
                                   Total:      30M


 P r o c e s s o r   #         1

 T i m i n g   i n f o r m a t i o n
                        CPU(seconds)   %CPU  Clock(seconds) %Clock
  ----------------------------------------------------------------
  Keyword Processing ... 2.9295E-01    0.10     2.9425E-01    0.10
  MPP Decomposition .... 5.6369E-01    0.19     6.2051E-01    0.20
    Init Proc .......... 4.4557E-01    0.15     4.4748E-01    0.15
    Decomposition ...... 3.5353E-02    0.01     3.5523E-02    0.01
    Translation ........ 8.2685E-02    0.03     1.3743E-01    0.05
  Initialization ....... 1.4180E-01    0.05     1.5143E-01    0.05
    Init Proc Phase 1 .. 9.9807E-02    0.03     1.0575E-01    0.03
    Init Proc Phase 2 .. 1.2217E-02    0.00     1.2767E-02    0.00
  Element processing ... 1.7160E+02   56.71     1.7256E+02   56.68
    Solids ............. 1.6565E+02   54.74     1.6656E+02   54.71
    E Other ............ 9.2071E-02    0.03     9.3792E-02    0.03
  Binary databases ..... 4.9995E-01    0.17     5.0219E-01    0.16
  ASCII database ....... 2.0112E+00    0.66     2.0286E+00    0.67
  Contact algorithm .... 6.4979E+01   21.47     6.5343E+01   21.46
    Interf. ID         3 1.6602E+01    5.49     1.6693E+01    5.48
    Interf. ID         2 4.3350E+01   14.33     4.3595E+01   14.32
  Rigid Bodies ......... 1.9598E-01    0.06     1.9509E-01    0.06
  DEM .................. 1.9720E+01    6.52     1.9829E+01    6.51
    DEM self contact ... 1.9135E+01    6.32     1.9244E+01    6.32
  Time step size ....... 2.7802E+00    0.92     2.7926E+00    0.92
  Group force file ..... 6.2346E-02    0.02     7.3207E-02    0.02
  Others ............... 2.7744E+00    0.92     2.8167E+00    0.93
    Force Sharing ...... 2.3173E+00    0.77     2.3263E+00    0.76
  Misc. 1 .............. 2.2338E+01    7.38     2.2470E+01    7.38
    Scale Masses ....... 1.8662E-02    0.01     1.7211E-02    0.01
    Force Constraints .. 2.9724E-02    0.01     3.1296E-02    0.01
    Force to Accel ..... 2.0725E+00    0.68     2.0792E+00    0.68
    Constraint Sharing . 3.5984E-02    0.01     3.6432E-02    0.01
    Update RB nodes .... 3.9203E-02    0.01     3.9847E-02    0.01
  Misc. 2 .............. 5.3012E+00    1.75     5.3223E+00    1.75
  Misc. 3 .............. 7.9122E+00    2.61     7.9911E+00    2.62
  Misc. 4 .............. 1.4323E+00    0.47     1.4397E+00    0.47
    Timestep Init ...... 1.0523E+00    0.35     1.0531E+00    0.35
    Apply Loads ........ 3.0828E-01    0.10     3.1459E-01    0.10
  ----------------------------------------------------------------
  T o t a l s            3.0261E+02  100.00     3.0443E+02  100.00


 A v e r a g e s

 T i m i n g   i n f o r m a t i o n
                        CPU(seconds)   %CPU  Clock(seconds) %Clock
  ----------------------------------------------------------------
  Keyword Processing ... 2.7222E-01    0.09     2.9384E-01    0.10
    KW Reading ......... 1.8597E-02    0.01     1.8880E-02    0.01
    KW Writing ......... 1.0890E-02    0.00     1.7439E-02    0.01
  MPP Decomposition .... 5.2729E-01    0.18     6.2091E-01    0.20
    Init Proc .......... 4.0883E-01    0.14     4.4747E-01    0.15
    Decomposition ...... 3.0257E-02    0.01     3.5491E-02    0.01
    Translation ........ 8.8130E-02    0.03     1.3787E-01    0.05
  Initialization ....... 1.3796E-01    0.05     1.5124E-01    0.05
    Init Proc Phase 1 .. 1.0091E-01    0.03     1.0573E-01    0.03
    Init Proc Phase 2 .. 1.1626E-02    0.00     1.2772E-02    0.00
  Element processing ... 1.3158E+02   43.70     1.3234E+02   43.47
    Solids ............. 1.2627E+02   41.94     1.2699E+02   41.71
    E Other ............ 1.4674E-01    0.05     1.4787E-01    0.05
  Binary databases ..... 5.1471E-01    0.17     5.3015E-01    0.17
  ASCII database ....... 2.2873E+00    0.76     3.7506E+00    1.23
  Contact algorithm .... 6.5005E+01   21.59     6.5363E+01   21.47
    Interf. ID         3 1.6899E+01    5.61     1.6988E+01    5.58
    Interf. ID         2 4.1990E+01   13.95     4.2224E+01   13.87
  Rigid Bodies ......... 3.0066E-01    0.10     3.0019E-01    0.10
  DEM .................. 2.1088E+01    7.00     2.1203E+01    6.96
    DEM self contact ... 2.0515E+01    6.81     2.0629E+01    6.78
  Time step size ....... 4.2775E+01   14.21     4.2989E+01   14.12
  Group force file ..... 6.2516E-02    0.02     7.3279E-02    0.02
  Others ............... 2.0713E+00    0.69     2.1064E+00    0.69
    Force Sharing ...... 1.5536E+00    0.52     1.5600E+00    0.51
  Misc. 1 .............. 2.1517E+01    7.15     2.1655E+01    7.11
    Scale Masses ....... 2.2776E-02    0.01     2.2420E-02    0.01
    Force Constraints .. 3.6836E-02    0.01     3.7579E-02    0.01
    Force to Accel ..... 2.0982E+00    0.70     2.1046E+00    0.69
    Constraint Sharing . 4.4807E-02    0.01     4.5371E-02    0.01
    Update RB nodes .... 4.4833E-02    0.01     4.5707E-02    0.02
  Misc. 2 .............. 5.1596E+00    1.71     5.1791E+00    1.70
  Misc. 3 .............. 6.3567E+00    2.11     6.4341E+00    2.11
  Misc. 4 .............. 1.4313E+00    0.48     1.4391E+00    0.47
    Timestep Init ...... 1.0230E+00    0.34     1.0231E+00    0.34
    Apply Loads ........ 3.3836E-01    0.11     3.4516E-01    0.11
  ----------------------------------------------------------------
  T o t a l s            3.0109E+02  100.00     3.0443E+02  100.00

 Problem time       =    6.0001E-05
 Problem cycle      =     55653
 Total CPU time     =       301 seconds (   0 hours  5 minutes  1 seconds)
 CPU time per zone cycle  =        466.003 nanoseconds
 Clock time per zone cycle=        471.097 nanoseconds

 Parallel execution with      4 MPP proc
 NLQ used/max                64/    64

  C P U   T i m i n g   i n f o r m a t i o n

  Processor   Hostname                              CPU/Avg_CPU  CPU(seconds)
  ---------------------------------------------------------------------------
  #       0   compute-0-1                               0.98438   2.9644E+02
  #       1   compute-0-1                               1.00507   3.0267E+02
  #       2   compute-0-1                               1.00524   3.0272E+02
  #       3   compute-0-1                               1.00530   3.0274E+02
  ---------------------------------------------------------------------------
  T o t a l s                                                     1.2046E+03


 Start time   04/08/2022 13:41:01  
 End time     04/08/2022 13:46:05  
 Elapsed time     304 seconds for   55653 cycles using     4 MPP procs
             (      0 hour   5 minutes  4 seconds)

 N o r m a l    t e r m i n a t i o n                          04/08/22 13:46:05
