      Date: 04/08/2022      Time: 13:41:01  

     ___________________________________________________
     |                                                 |
     |  Livermore Software Technology, LLC             |
     |                                                 |
     |  7374 Las Positas Road                          |
     |  Livermore, CA 94551                            |
     |  Tel: (925) 449-2500  Fax: (925) 449-2507       |
     |  www.lstc.com                                   |
     |_________________________________________________|
     |                                                 |
     |  LS-DYNA, A Program for Nonlinear Dynamic       |
     |  Analysis of Structures in Three Dimensions     |
     |  Version : mpp d R12.0.0   Date: 06/19/2020     |
     |  Revision: 148931          Time: 17:26:40       |
     |                                                 |
     |  Features enabled in this version:              |
     |    Distributed Memory Parallel                  |
     |    CESE CHEMISTRY EM ICFD STOCHASTIC_PARTICLES  |
     |    FFTW (multi-dimensional FFTW Library)        |
     |    ANSYS License (ANSYS202)                     |
     |    BigID  option                                |
     |                                                 |
     |  Licensed to: Norwegian University of Science an|
     |  Issued by  : Pascale.SaneGuttin_02092022       |
     |                                                 |
     |  Platform   : Intel-MPI 2018 Xeon64             |
     |  OS Level   : Linux CentOS 6.5 uom              |
     |  Compiler   : Intel Fortran Compiler 16.0 AVX-2 |
     |  Hostname   : compute-0-1                       |
     |  Precision  : Double precision (I8R8)           |
     |  SVN Version: 148978                            |
     |                                                 |
     |  Unauthorized use infringes LST copyrights      |
     |_________________________________________________|


 Input file: DynaOpt.key                                                                     

 The native file format       : 64-bit small endian
 Memory size from default     :   100000000,            0
 Binary file                  : 32 bit IEEE selected
 d3dump option                : d3dump will be suppressed
 Memory size from default     :   100000000,    100000000

 Memory for the head node
 Memory installed (MB)        :       257787
 Memory available (MB)        :       232788

 ********  notice  ********  notice  ********  notice  ********
 *                                                            *
 * This is the LS-DYNA Finite Element code.                   *
 *                                                            *
 * Neither LST nor the authors assume any responsibility for  *
 * the validity, accuracy, or applicability of any results    *
 * obtained from this system. Users must verify their own     *
 * results.                                                   *
 *                                                            *
 * LST endeavors to make the LS-DYNA code as complete,        *
 * accurate and easy to use as possible.                      *
 * Suggestions and comments are welcomed.  Please report any  *
 * errors encountered in either the documentation or results  *
 * immediately to LST through your site focus.                *
 *                                                            *
 * Copyright (C) 1990-2020                                    *
 * by Livermore Software Technology, LLC                      *
 * All rights reserved                                        *
 *                                                            *
 ********  notice  ********  notice  ********  notice  ********
 
LSTC Environment Variables:
 
LSTC_BINARY=32ieee
LSTC_LICENSE_SERVER=129.241.89.45
LSTC_D3DUMP=off
LSTC_LICENSE=network
 

 Beginning of keyword reader                                   04/08/22 13:41:01
 allocating  memory to   100000000 d     1995258 beginning of keyword reader
 expanding   memory to      273278 d     2167278  
 expanding   memory to      303278 d     2167278  
 expanding   memory to      363278 d     2167278  
 expanding   memory to      383430 d     2167278  
 expanding   memory to      449618 d     2167278  
 expanding   memory to      499902 d     2167278  
 expanding   memory to      520902 d     2167278  
 expanding   memory to      585902 d     2167278  
 expanding   memory to      614678 d     2167278  
 expanding   memory to      729782 d     2167278  
 expanding   memory to      750824 d     2167278  

                                                               04/08/22 13:41:01
 Open include file: mesh_ball_target.key

                                                               04/08/22 13:41:01
 Open include file: mesh_wall.key
 expanding   memory to      779649 d     2167278  
 expanding   memory to      799649 d     2167278  
 expanding   memory to      819649 d     2167278  

********** echo of pfile data **********


*********** end of pfile data **********
 expanding   memory to      850739 d     2167278  
 expanding   memory to      878409 d     2167278  
 expanding   memory to     1182779 d     2167278  
 expanding   memory to     1210449 d     2167278  
 expanding   memory to     1233591 d     2444982  
 expanding   memory to     1314588 d     2444982  
 expanding   memory to     1407156 d     2444982  
 expanding   memory to     1534437 d     2444982  
 expanding   memory to     1585249 d     2444982  
 expanding   memory to     1609729 d     2444982  
 
 *** Warning 10138 (KEY+138)
     *SET_NODE Set number 5 is empty at 6th input
 expanding   memory to     1632929 d     2495808  
 expanding   memory to     1654929 d     2495808  
 expanding   memory to     1676929 d     2495808  
 expanding   memory to     1698929 d     2495808  
 expanding   memory to     1720929 d     2495808  
 expanding   memory to     1742929 d     2495808  
 expanding   memory to     1764929 d     2495808  
 expanding   memory to     1786929 d     2495808  
 expanding   memory to     1808929 d     2495808  
 expanding   memory to     1830929 d     2495808  
 expanding   memory to     1852929 d     2495808  
 expanding   memory to     1874929 d     2495808  
 expanding   memory to     1896929 d     2495808  
 expanding   memory to     1918929 d     2495808  
 expanding   memory to     1957635 d     2495808  
 expanding   memory to     1985341 d     2495808  
 expanding   memory to     2286874 d     2495808  

 Memory required to process keyword     :    2286874  
 Additional dynamic memory required     :    2583834  

 allocating  memory to   100000000 d     1820666 end of keyword reader

 MPP execution with       4 procs

 LS-DYNA will perform a structural only analysis 


 Initial reading of file                                       04/08/22 13:41:01
 LS-DYNA keyword deck by LS-PrePost                                      
                         ls-dyna mpp.148931 d           date 06/19/2020
 expanding   memory to        4305 d     1579236 material, node and element data
 expanding   memory to        4399 d     1579255 mat add general damage 0
 expanding   memory to        4459 d     1579255 material added airbag porosity leakage 
 expanding   memory to        4477 d     1579255 material properties
 expanding   memory to        4495 d     1746824 element data for composite material
 expanding   memory to        4510 d     3006043 gradient of damage data
 expanding   memory to        4676 d     3006052 user control for contact interfaces
 contracting memory to        4662 d     3006052 thermal expansion 0
 expanding   memory to        4668 d     3006052 state of charge expansion 0
 expanding   memory to        4670 d     3006052 cross-sectional force definitions 0
 expanding   memory to       43911 d     3006088 temp index array for node sorting
 contracting memory to        4670 d     3045333 just because?
 expanding   memory to       16241 d     3123833 arbitrary element numbering input
 contracting memory to        4690 d     3804540 spc cards
 contracting memory to        4677 d     3845446 process element material data
 expanding   memory to        6678 d     3845440 load curve data
 contracting memory to        4684 d     3845440 user_define_loading_set
 expanding   memory to        4884 d     3845440 regularize time history data
 contracting memory to        4688 d     3845440 *DEFINE_ELEMENT_DEATH
 expanding   memory to        4937 d     3927209 contact interfaces
 expanding   memory to       84419 d     3927209 implicit contact 1
 expanding   memory to      176815 d     3927209 implicit contact 2
 contracting memory to        4937 d     4066095 before call to elgen
 expanding   memory to        5937 d     4451583 contact segment data 1
 expanding   memory to      216228 d     4761376 contact segment data 3
 contracting memory to        4937 d     4592978 contact definition
 expanding   memory to        4991 d     4592979 rigid body
 expanding   memory to        4995 d     4593624 contact friction
 expanding   memory to        5085 d     4593624 joints
 expanding   memory to        7145 d     4593624 de sld2des
 expanding   memory to        7185 d     4663050 discrete elements regions
 expanding   memory to        7285 d     4663650 rigid bodies for disp. termination
 expanding   memory to        7291 d     8236215 mat add cohesive 0
 expanding   memory to        7297 d     8236215 flexible body 2

 Performing Decomposition -- Phase 1                           04/08/22 13:41:02
 expanding   memory to      164020 d     5342919 decomp scratch 1
 expanding   memory to      295830 d     5342919 decomp reverse connectivity
 expanding   memory to      416179 d     5342920 element ownership

Decomposition region 1:

   Part list

Decomposition region 2:

   Everything

Region  1 is distributed to 4 processors

   With no coordinate transformation

Region  2 is distributed to 4 processors

   With no coordinate transformation

Normalized element costs assigned during decomposition:
            Minumum: 9.995726E-01
            Maximum: 1.000142E+00
 Standard Deviation: 2.467507E-04

 contracting memory to      358214 d     5382165 constraint scratch
 contracting memory to      323612 d     5421406 con segment decomp rewrite 2
 expanding   memory to      358215 d     5421406 shadow node processing
 expanding   memory to      397461 d     5382165 share node processing
 contracting memory to      305473 d     5342928 nodal sharing list

 Memory required for decomposition      :     416179  
 Additional dynamic memory required     :    8631693  

 allocating  memory to   100000000 d     5238779 Allocate memory top of decomps
 expanding   memory to       11572 d     5238779 hex ownership chunk
 contracting memory to           7 d     5233008 material sort chunk
 expanding   memory to          19 d     5233008 material uid
 expanding   memory to          24 d     5245849 nodal force sharing lists 1

 Performing Decomposition -- Phase 2                           04/08/22 13:41:02
 expanding   memory to          30 d     5228857 mat scratch
 expanding   memory to          31 d     6296936 tied nodes scratch
 expanding   memory to          34 d     6296936 tied node scratch
 contracting memory to          30 d     6296936 nodal rigid body scratch
 expanding   memory to        1310 d     6296936 DES sld2des scratch
 expanding   memory to       19460 d     6296936 DES sld2des scratch
 contracting memory to        2462 d     6296936 DES sld2des scratch
 contracting memory to          30 d     6296936 spring/damper scratch
 contracting memory to           1 d     5287776 Performing Decomposition -- Phase 3
 Performing Decomposition -- Phase 3                           04/08/22 13:41:02
 LS-DYNA keyword deck by LS-PrePost                                      
                         ls-dyna mpp.148931 d           date 06/19/2020
 expanding   memory to        4305 d     5287776 material, node and element data
 expanding   memory to        4399 d     5287795 mat add general damage 0
 expanding   memory to        4459 d     5287795 material added airbag porosity leakage 
 expanding   memory to        4477 d     5287795 material properties
 expanding   memory to        4495 d     5327403 element data for composite material
 expanding   memory to        4510 d     5652488 gradient of damage data
 expanding   memory to       17584 d     5695996 user control for contact interfaces
 contracting memory to       17570 d     5695996 thermal expansion 0
 expanding   memory to       17576 d     5695996 state of charge expansion 0
 expanding   memory to       17578 d     5695996 cross-sectional force definitions 0
 expanding   memory to       27144 d     5696032 temp index array for node sorting
 contracting memory to       17578 d     5696032 just because?
 expanding   memory to       20478 d     5715182 arbitrary element numbering input
 contracting memory to       17598 d    30310183 spc cards
 contracting memory to       17585 d    30310183 d3thdt storage
 expanding   memory to       17586 d    30398716 process element material data
 expanding   memory to       19587 d    30398710 load curve data
 contracting memory to       17593 d    30398710 user_define_loading_set
 expanding   memory to       17793 d    30398710 regularize time history data
 contracting memory to       17597 d    30398710 *DEFINE_ELEMENT_DEATH
 expanding   memory to       17653 d    30417843 MPP copy of tim vector
 expanding   memory to       17902 d    30381379 contact interfaces
 expanding   memory to       38034 d    30381379 implicit contact 1
 expanding   memory to       61220 d    30381379 implicit contact 2
 contracting memory to       18902 d    30658958 contact segment data 1
 expanding   memory to       70800 d    30922046 contact segment data 3
 expanding   memory to      163368 d    30791256 read contacts, eroding check
 expanding   memory to      253507 d    30791256 eroding neighbors 2
 expanding   memory to      273808 d    30791256 eroding neighbors
 contracting memory to      111402 d    31223951 contact definition
 expanding   memory to      111408 d    31417612 contact history
 expanding   memory to      111462 d    31497374 rigid body
 expanding   memory to      111480 d    31497374 rbe2 scratch
 contracting memory to      111466 d    31559951 contact friction
 expanding   memory to      111556 d    31559957 joints
 expanding   memory to      113616 d    31559957 de sld2des
 expanding   memory to      113656 d    31568657 discrete elements regions
 expanding   memory to      113756 d    31786313 rigid bodies for disp. termination
 expanding   memory to      114134 d    31786313 save d3plot control data
 
 *** Warning 40859 (SOL+859)
     Cannot find elements of slave segment of interface 2
 deleted segment ID          n1          n2          n3          n4
       1 310000 310000 310000 310000
       2 310001 310001 310001 310001
       3 310002 310002 310002 310002
       4 310003 310003 310003 310003
       5 310004 310004 310004 310004
       6 310005 310005 310005 310005
       7 310006 310006 310006 310006
       8 310007 310007 310007 310007
       9 310008 310008 310008 310008
       10 310009 310009 310009 310009
       11 310010 310010 310010 310010
       12 310011 310011 310011 310011
       13 310012 310012 310012 310012
       14 310013 310013 310013 310013
       15 310014 310014 310014 310014
       16 310015 310015 310015 310015
       17 310016 310016 310016 310016
       18 310017 310017 310017 310017
       19 310018 310018 310018 310018
       20 310019 310019 310019 310019
       21 310020 310020 310020 310020
       22 310021 310021 310021 310021
       23 310022 310022 310022 310022
       24 310023 310023 310023 310023
       25 310024 310024 310024 310024
       26 310025 310025 310025 310025
       27 310026 310026 310026 310026
       28 310027 310027 310027 310027
       29 310028 310028 310028 310028
       30 310029 310029 310029 310029
       31 310030 310030 310030 310030
       32 310031 310031 310031 310031
       33 310032 310032 310032 310032
       34 310033 310033 310033 310033
       35 310034 310034 310034 310034
       36 310035 310035 310035 310035
       37 310036 310036 310036 310036
       38 310037 310037 310037 310037
       39 310038 310038 310038 310038
       40 310039 310039 310039 310039
       41 310040 310040 310040 310040
       42 310041 310041 310041 310041
       43 310042 310042 310042 310042
       44 310043 310043 310043 310043
       45 310044 310044 310044 310044
       46 310045 310045 310045 310045
       47 310046 310046 310046 310046
       48 310047 310047 310047 310047
       49 310048 310048 310048 310048
       50 310049 310049 310049 310049
       51 310050 310050 310050 310050
       52 310051 310051 310051 310051
       53 310052 310052 310052 310052
       54 310053 310053 310053 310053
       55 310054 310054 310054 310054
       56 310055 310055 310055 310055
       57 310056 310056 310056 310056
       58 310057 310057 310057 310057
       59 310058 310058 310058 310058
       60 310059 310059 310059 310059
       61 310060 310060 310060 310060
       62 310061 310061 310061 310061
       63 310062 310062 310062 310062
       64 310063 310063 310063 310063
       65 310064 310064 310064 310064
       66 310065 310065 310065 310065
       67 310066 310066 310066 310066
       68 310067 310067 310067 310067
       69 310068 310068 310068 310068
       70 310069 310069 310069 310069
       71 310070 310070 310070 310070
       72 310071 310071 310071 310071
       73 310072 310072 310072 310072
       74 310073 310073 310073 310073
       75 310074 310074 310074 310074
       76 310075 310075 310075 310075
       77 310076 310076 310076 310076
       78 310077 310077 310077 310077
       79 310078 310078 310078 310078
       80 310079 310079 310079 310079
       81 310080 310080 310080 310080
       82 310081 310081 310081 310081
       83 310082 310082 310082 310082
       84 310083 310083 310083 310083
       85 310084 310084 310084 310084
       86 310085 310085 310085 310085
       87 310086 310086 310086 310086
       88 310087 310087 310087 310087
       89 310088 310088 310088 310088
       90 310089 310089 310089 310089
       91 310090 310090 310090 310090
       92 310091 310091 310091 310091
       93 310092 310092 310092 310092
       94 310093 310093 310093 310093
       95 310094 310094 310094 310094
       96 310095 310095 310095 310095
       97 310096 310096 310096 310096
       98 310097 310097 310097 310097
       99 310098 310098 310098 310098
       100 310099 310099 310099 310099
       101 310100 310100 310100 310100
       102 310101 310101 310101 310101
       103 310102 310102 310102 310102
       104 310103 310103 310103 310103
       105 310104 310104 310104 310104
       106 310105 310105 310105 310105
       107 310106 310106 310106 310106
       108 310107 310107 310107 310107
       109 310108 310108 310108 310108
       110 310109 310109 310109 310109
       111 310110 310110 310110 310110
       112 310111 310111 310111 310111
       113 310112 310112 310112 310112
       114 310113 310113 310113 310113
       115 310114 310114 310114 310114
       116 310115 310115 310115 310115
       117 310116 310116 310116 310116
       118 310117 310117 310117 310117
       119 310118 310118 310118 310118
       120 310119 310119 310119 310119
       121 310120 310120 310120 310120
       122 310121 310121 310121 310121
       123 310122 310122 310122 310122
       124 310123 310123 310123 310123
       125 310124 310124 310124 310124
       126 310125 310125 310125 310125
       127 310126 310126 310126 310126
       128 310127 310127 310127 310127
       129 310128 310128 310128 310128
       130 310129 310129 310129 310129
       131 310130 310130 310130 310130
       132 310131 310131 310131 310131
       133 310132 310132 310132 310132
       134 310133 310133 310133 310133
       135 310134 310134 310134 310134
       136 310135 310135 310135 310135
       137 310136 310136 310136 310136
       138 310137 310137 310137 310137
       139 310138 310138 310138 310138
       140 310139 310139 310139 310139
       141 310140 310140 310140 310140
       142 310141 310141 310141 310141
       143 310142 310142 310142 310142
       144 310143 310143 310143 310143
       145 310144 310144 310144 310144
       146 310145 310145 310145 310145
       147 310146 310146 310146 310146
       148 310147 310147 310147 310147
       149 310148 310148 310148 310148
       150 310149 310149 310149 310149
       151 310150 310150 310150 310150
       152 310151 310151 310151 310151
       153 310152 310152 310152 310152
       154 310153 310153 310153 310153
       155 310154 310154 310154 310154
       156 310155 310155 310155 310155
       157 310156 310156 310156 310156
       158 310157 310157 310157 310157
       159 310158 310158 310158 310158
       160 310159 310159 310159 310159
       161 310160 310160 310160 310160
       162 310161 310161 310161 310161
       163 310162 310162 310162 310162
       164 310163 310163 310163 310163
       165 310164 310164 310164 310164
       166 310165 310165 310165 310165
       167 310166 310166 310166 310166
       168 310167 310167 310167 310167
       169 310168 310168 310168 310168
       170 310169 310169 310169 310169
       171 310170 310170 310170 310170
       172 310171 310171 310171 310171
       173 310172 310172 310172 310172
       174 310173 310173 310173 310173
       175 310174 310174 310174 310174
       176 310175 310175 310175 310175
       177 310176 310176 310176 310176
       178 310177 310177 310177 310177
       179 310178 310178 310178 310178
       180 310179 310179 310179 310179
       181 310180 310180 310180 310180
       182 310181 310181 310181 310181
       183 310182 310182 310182 310182
       184 310183 310183 310183 310183
       185 310184 310184 310184 310184
       186 310185 310185 310185 310185
       187 310186 310186 310186 310186
       188 310187 310187 310187 310187
       189 310188 310188 310188 310188
       190 310189 310189 310189 310189
       191 310190 310190 310190 310190
       192 310191 310191 310191 310191
       193 310192 310192 310192 310192
       194 310193 310193 310193 310193
       195 310194 310194 310194 310194
       196 310195 310195 310195 310195
       197 310196 310196 310196 310196
       198 310197 310197 310197 310197
       199 310198 310198 310198 310198
       200 310199 310199 310199 310199
       201 310200 310200 310200 310200
       202 310201 310201 310201 310201
       203 310202 310202 310202 310202
       204 310203 310203 310203 310203
       205 310204 310204 310204 310204
       206 310205 310205 310205 310205
       207 310206 310206 310206 310206
       208 310207 310207 310207 310207
       209 310208 310208 310208 310208
       210 310209 310209 310209 310209
       211 310210 310210 310210 310210
       212 310211 310211 310211 310211
       213 310212 310212 310212 310212
       214 310213 310213 310213 310213
       215 310214 310214 310214 310214
       216 310215 310215 310215 310215
       217 310216 310216 310216 310216
       218 310217 310217 310217 310217
       219 310218 310218 310218 310218
       220 310219 310219 310219 310219
       221 310220 310220 310220 310220
       222 310221 310221 310221 310221
       223 310222 310222 310222 310222
       224 310223 310223 310223 310223
       225 310224 310224 310224 310224
       226 310225 310225 310225 310225
       227 310226 310226 310226 310226
       228 310227 310227 310227 310227
       229 310228 310228 310228 310228
       230 310229 310229 310229 310229
       231 310230 310230 310230 310230
       232 310231 310231 310231 310231
       233 310232 310232 310232 310232
       234 310233 310233 310233 310233
       235 310234 310234 310234 310234
       236 310235 310235 310235 310235
       237 310236 310236 310236 310236
       238 310237 310237 310237 310237
       239 310238 310238 310238 310238
       240 310239 310239 310239 310239
       241 310240 310240 310240 310240
       242 310241 310241 310241 310241
       243 310242 310242 310242 310242
       244 310243 310243 310243 310243
       245 310244 310244 310244 310244
       246 310245 310245 310245 310245
       247 310246 310246 310246 310246
       248 310247 310247 310247 310247
       249 310248 310248 310248 310248
       250 310249 310249 310249 310249
       251 310250 310250 310250 310250
       252 310251 310251 310251 310251
       253 310252 310252 310252 310252
       254 310253 310253 310253 310253
       255 310254 310254 310254 310254
       256 310255 310255 310255 310255
       257 310256 310256 310256 310256
       258 310257 310257 310257 310257
       259 310258 310258 310258 310258
       260 310259 310259 310259 310259
       261 310260 310260 310260 310260
       262 310261 310261 310261 310261
       263 310262 310262 310262 310262
       264 310263 310263 310263 310263
       265 310264 310264 310264 310264
       266 310265 310265 310265 310265
       267 310266 310266 310266 310266
       268 310267 310267 310267 310267
       269 310268 310268 310268 310268
       270 310269 310269 310269 310269
       271 310270 310270 310270 310270
       272 310271 310271 310271 310271
       273 310272 310272 310272 310272
       274 310273 310273 310273 310273
       275 310274 310274 310274 310274
       276 310275 310275 310275 310275
       277 310276 310276 310276 310276
       278 310277 310277 310277 310277
       279 310278 310278 310278 310278
       280 310279 310279 310279 310279
       281 310280 310280 310280 310280
       282 310281 310281 310281 310281
       283 310282 310282 310282 310282
       284 310283 310283 310283 310283
       285 310284 310284 310284 310284
       286 310285 310285 310285 310285
       287 310286 310286 310286 310286
       288 310287 310287 310287 310287
       289 310288 310288 310288 310288
       290 310289 310289 310289 310289
       291 310290 310290 310290 310290
       292 310291 310291 310291 310291
       293 310292 310292 310292 310292
       294 310293 310293 310293 310293
       295 310294 310294 310294 310294
       296 310295 310295 310295 310295
       297 310296 310296 310296 310296
       298 310297 310297 310297 310297
       299 310298 310298 310298 310298
       300 310299 310299 310299 310299
       301 310300 310300 310300 310300
       302 310301 310301 310301 310301
       303 310302 310302 310302 310302
       304 310303 310303 310303 310303
       305 310304 310304 310304 310304
       306 310305 310305 310305 310305
       307 310306 310306 310306 310306
       308 310307 310307 310307 310307
       309 310308 310308 310308 310308
       310 310309 310309 310309 310309
       311 310310 310310 310310 310310
       312 310311 310311 310311 310311
       313 310312 310312 310312 310312
       314 310313 310313 310313 310313
       315 310314 310314 310314 310314
       316 310315 310315 310315 310315
       317 310316 310316 310316 310316
       318 310317 310317 310317 310317
       319 310318 310318 310318 310318
       320 310319 310319 310319 310319
       321 310320 310320 310320 310320
       322 310321 310321 310321 310321
       323 310322 310322 310322 310322
       324 310323 310323 310323 310323
       325 310324 310324 310324 310324
       326 310325 310325 310325 310325
       327 310326 310326 310326 310326
       328 310327 310327 310327 310327
       329 310328 310328 310328 310328
       330 310329 310329 310329 310329
       331 310330 310330 310330 310330
       332 310331 310331 310331 310331
       333 310332 310332 310332 310332
       334 310333 310333 310333 310333
       335 310334 310334 310334 310334
       336 310335 310335 310335 310335
       337 310336 310336 310336 310336
       338 310337 310337 310337 310337
       339 310338 310338 310338 310338
       340 310339 310339 310339 310339
       341 310340 310340 310340 310340
       342 310341 310341 310341 310341
       343 310342 310342 310342 310342
       344 310343 310343 310343 310343
       345 310344 310344 310344 310344
       346 310345 310345 310345 310345
       347 310346 310346 310346 310346
       348 310347 310347 310347 310347
       349 310348 310348 310348 310348
       350 310349 310349 310349 310349
       351 310350 310350 310350 310350
       352 310351 310351 310351 310351
       353 310352 310352 310352 310352
       354 310353 310353 310353 310353
       355 310354 310354 310354 310354
       356 310355 310355 310355 310355
       357 310356 310356 310356 310356
       358 310357 310357 310357 310357
       359 310358 310358 310358 310358
       360 310359 310359 310359 310359
       361 310360 310360 310360 310360
       362 310361 310361 310361 310361
       363 310362 310362 310362 310362
       364 310363 310363 310363 310363
       365 310364 310364 310364 310364
       366 310365 310365 310365 310365
       367 310366 310366 310366 310366
       368 310367 310367 310367 310367
       369 310368 310368 310368 310368
       370 310369 310369 310369 310369
       371 310370 310370 310370 310370
       372 310371 310371 310371 310371
       373 310372 310372 310372 310372
       374 310373 310373 310373 310373
       375 310374 310374 310374 310374
       376 310375 310375 310375 310375
       377 310376 310376 310376 310376
       378 310377 310377 310377 310377
       379 310378 310378 310378 310378
       380 310379 310379 310379 310379
       381 310380 310380 310380 310380
       382 310381 310381 310381 310381
       383 310382 310382 310382 310382
       384 310383 310383 310383 310383
       385 310384 310384 310384 310384
       386 310385 310385 310385 310385
       387 310386 310386 310386 310386
       388 310387 310387 310387 310387
       389 310388 310388 310388 310388
       390 310389 310389 310389 310389
       391 310390 310390 310390 310390
       392 310391 310391 310391 310391
       393 310392 310392 310392 310392
       394 310393 310393 310393 310393
       395 310394 310394 310394 310394
       396 310395 310395 310395 310395
       397 310396 310396 310396 310396
       398 310397 310397 310397 310397
       399 310398 310398 310398 310398
       400 310399 310399 310399 310399
       401 310400 310400 310400 310400
       402 310401 310401 310401 310401
       403 310402 310402 310402 310402
       404 310403 310403 310403 310403
       405 310404 310404 310404 310404
       406 310405 310405 310405 310405
       407 310406 310406 310406 310406
       408 310407 310407 310407 310407
       409 310408 310408 310408 310408
       410 310409 310409 310409 310409
       411 310410 310410 310410 310410
       412 310411 310411 310411 310411
       413 310412 310412 310412 310412
       414 310413 310413 310413 310413
       415 310414 310414 310414 310414
       416 310415 310415 310415 310415
       417 310416 310416 310416 310416
       418 310417 310417 310417 310417
       419 310418 310418 310418 310418
       420 310419 310419 310419 310419
       421 310420 310420 310420 310420
       422 310421 310421 310421 310421
       423 310422 310422 310422 310422
       424 310423 310423 310423 310423
       425 310424 310424 310424 310424
       426 310425 310425 310425 310425
       427 310426 310426 310426 310426
       428 310427 310427 310427 310427
       429 310428 310428 310428 310428
       430 310429 310429 310429 310429
       431 310430 310430 310430 310430
       432 310431 310431 310431 310431
       433 310432 310432 310432 310432
       434 310433 310433 310433 310433
       435 310434 310434 310434 310434
       436 310435 310435 310435 310435
       437 310436 310436 310436 310436
       438 310437 310437 310437 310437
       439 310438 310438 310438 310438
       440 310439 310439 310439 310439
       441 310440 310440 310440 310440
       442 310441 310441 310441 310441
       443 310442 310442 310442 310442
       444 310443 310443 310443 310443
       445 310444 310444 310444 310444
       446 310445 310445 310445 310445
       447 310446 310446 310446 310446
       448 310447 310447 310447 310447
       449 310448 310448 310448 310448
       450 310449 310449 310449 310449
       451 310450 310450 310450 310450
       452 310451 310451 310451 310451
       453 310452 310452 310452 310452
       454 310453 310453 310453 310453
       455 310454 310454 310454 310454
       456 310455 310455 310455 310455
       457 310456 310456 310456 310456
       458 310457 310457 310457 310457
       459 310458 310458 310458 310458
       460 310459 310459 310459 310459
       461 310460 310460 310460 310460
       462 310461 310461 310461 310461
       463 310462 310462 310462 310462
       464 310463 310463 310463 310463
       465 310464 310464 310464 310464
       466 310465 310465 310465 310465
       467 310466 310466 310466 310466
       468 310467 310467 310467 310467
       469 310468 310468 310468 310468
       470 310469 310469 310469 310469
       471 310470 310470 310470 310470
       472 310471 310471 310471 310471
       473 310472 310472 310472 310472
       474 310473 310473 310473 310473
       475 310474 310474 310474 310474
       476 310475 310475 310475 310475
       477 310476 310476 310476 310476
       478 310477 310477 310477 310477
       479 310478 310478 310478 310478
       480 310479 310479 310479 310479
       481 310480 310480 310480 310480
       482 310481 310481 310481 310481
       483 310482 310482 310482 310482
       484 310483 310483 310483 310483
       485 310484 310484 310484 310484
       486 310485 310485 310485 310485
       487 310486 310486 310486 310486
       488 310487 310487 310487 310487
       489 310488 310488 310488 310488
       490 310489 310489 310489 310489
       491 310490 310490 310490 310490
       492 310491 310491 310491 310491
       493 310492 310492 310492 310492
       494 310493 310493 310493 310493
       495 310494 310494 310494 310494
       496 310495 310495 310495 310495
       497 310496 310496 310496 310496
       498 310497 310497 310497 310497
       499 310498 310498 310498 310498
       500 310499 310499 310499 310499
       501 310500 310500 310500 310500
       502 310501 310501 310501 310501
       503 310502 310502 310502 310502
       504 310503 310503 310503 310503
       505 310504 310504 310504 310504
       506 310505 310505 310505 310505
       507 310506 310506 310506 310506
       508 310507 310507 310507 310507
       509 310508 310508 310508 310508
       510 310509 310509 310509 310509
       511 310510 310510 310510 310510
       512 310511 310511 310511 310511
       513 310512 310512 310512 310512
       514 310513 310513 310513 310513
       515 310514 310514 310514 310514
       516 310515 310515 310515 310515
       517 310516 310516 310516 310516
       518 310517 310517 310517 310517
       519 310518 310518 310518 310518
       520 310519 310519 310519 310519
       521 310520 310520 310520 310520
       522 310521 310521 310521 310521
       523 310522 310522 310522 310522
       524 310523 310523 310523 310523
       525 310524 310524 310524 310524
       526 310525 310525 310525 310525
       527 310526 310526 310526 310526
       528 310527 310527 310527 310527
       529 310528 310528 310528 310528
       530 310529 310529 310529 310529
       531 310530 310530 310530 310530
       532 310531 310531 310531 310531
       533 310532 310532 310532 310532
       534 310533 310533 310533 310533
       535 310534 310534 310534 310534
       536 310535 310535 310535 310535
       537 310536 310536 310536 310536
       538 310537 310537 310537 310537
       539 310538 310538 310538 310538
       540 310539 310539 310539 310539
       541 310540 310540 310540 310540
       542 310541 310541 310541 310541
       543 310542 310542 310542 310542
       544 310543 310543 310543 310543
       545 310544 310544 310544 310544
       546 310545 310545 310545 310545
       547 310546 310546 310546 310546
       548 310547 310547 310547 310547
       549 310548 310548 310548 310548
       550 310549 310549 310549 310549
       551 310550 310550 310550 310550
       552 310551 310551 310551 310551
       553 310552 310552 310552 310552
       554 310553 310553 310553 310553
       555 310554 310554 310554 310554
       556 310555 310555 310555 310555
       557 310556 310556 310556 310556
       558 310557 310557 310557 310557
       559 310558 310558 310558 310558
       560 310559 310559 310559 310559
       561 310560 310560 310560 310560
       562 310561 310561 310561 310561
       563 310562 310562 310562 310562
       564 310563 310563 310563 310563
       565 310564 310564 310564 310564
       566 310565 310565 310565 310565
       567 310566 310566 310566 310566
       568 310567 310567 310567 310567
       569 310568 310568 310568 310568
       570 310569 310569 310569 310569
       571 310570 310570 310570 310570
       572 310571 310571 310571 310571
       573 310572 310572 310572 310572
       574 310573 310573 310573 310573
       575 310574 310574 310574 310574
       576 310575 310575 310575 310575
       577 310576 310576 310576 310576
       578 310577 310577 310577 310577
       579 310578 310578 310578 310578
       580 310579 310579 310579 310579
       581 310580 310580 310580 310580
       582 310581 310581 310581 310581
       583 310582 310582 310582 310582
       584 310583 310583 310583 310583
       585 310584 310584 310584 310584
       586 310585 310585 310585 310585
       587 310586 310586 310586 310586
       588 310587 310587 310587 310587
       589 310588 310588 310588 310588
       590 310589 310589 310589 310589
       591 310590 310590 310590 310590
       592 310591 310591 310591 310591
       593 310592 310592 310592 310592
       594 310593 310593 310593 310593
       595 310594 310594 310594 310594
       596 310595 310595 310595 310595
       597 310596 310596 310596 310596
       598 310597 310597 310597 310597
       599 310598 310598 310598 310598
       600 310599 310599 310599 310599
       601 310600 310600 310600 310600
       602 310601 310601 310601 310601
       603 310602 310602 310602 310602
       604 310603 310603 310603 310603
       605 310604 310604 310604 310604
       606 310605 310605 310605 310605
       607 310606 310606 310606 310606
       608 310607 310607 310607 310607
       609 310608 310608 310608 310608
       610 310609 310609 310609 310609
       611 310610 310610 310610 310610
       612 310611 310611 310611 310611
       613 310612 310612 310612 310612
       614 310613 310613 310613 310613
       615 310614 310614 310614 310614
       616 310615 310615 310615 310615
       617 310616 310616 310616 310616
       618 310617 310617 310617 310617
       619 310618 310618 310618 310618
       620 310619 310619 310619 310619
       621 310620 310620 310620 310620
       622 310621 310621 310621 310621
       623 310622 310622 310622 310622
       624 310623 310623 310623 310623
       625 310624 310624 310624 310624
       626 310625 310625 310625 310625
       627 310626 310626 310626 310626
       628 310627 310627 310627 310627
       629 310628 310628 310628 310628
       630 310629 310629 310629 310629
       631 310630 310630 310630 310630
       632 310631 310631 310631 310631
       633 310632 310632 310632 310632
       634 310633 310633 310633 310633
       635 310634 310634 310634 310634
       636 310635 310635 310635 310635
       637 310636 310636 310636 310636
       638 310637 310637 310637 310637
       639 310638 310638 310638 310638
       640 310639 310639 310639 310639
       641 310641 310641 310641 310641
       642 310655 310655 310655 310655
       643 310678 310678 310678 310678
       644 310682 310682 310682 310682
       645 310695 310695 310695 310695
       646 310718 310718 310718 310718
       647 310721 310721 310721 310721
       648 310741 310741 310741 310741
       649 310763 310763 310763 310763
       650 310781 310781 310781 310781
       651 310784 310784 310784 310784
       652 310803 310803 310803 310803
       653 310809 310809 310809 310809
       654 310818 310818 310818 310818
       655 310841 310841 310841 310841
       656 310847 310847 310847 310847
       657 310857 310857 310857 310857
       658 310880 310880 310880 310880
       659 310886 310886 310886 310886
       660 310897 310897 310897 310897
       661 310920 310920 310920 310920
       662 310923 310923 310923 310923
       663 310926 310926 310926 310926
       664 310937 310937 310937 310937
       665 310959 310959 310959 310959
       666 310965 310965 310965 310965
       667 310999 310999 310999 310999
       668 311002 311002 311002 311002
       669 311009 311009 311009 311009
       670 311038 311038 311038 311038
       671 311076 311076 311076 311076
       672 311115 311115 311115 311115
       673 311153 311153 311153 311153
       674 311193 311193 311193 311193
       675 311236 311236 311236 311236
       676 311276 311276 311276 311276
       677 311315 311315 311315 311315
       678 311356 311356 311356 311356
       679 311360 311360 311360 311360
       680 311396 311396 311396 311396
       681 311436 311436 311436 311436
       682 311440 311440 311440 311440
       683 311475 311475 311475 311475
       684 311479 311479 311479 311479
       685 311482 311482 311482 311482
       686 311514 311514 311514 311514
       687 311544 311544 311544 311544
       688 311555 311555 311555 311555
       689 311586 311586 311586 311586
       690 311597 311597 311597 311597
       691 311625 311625 311625 311625
       692 311636 311636 311636 311636
       693 311643 311643 311643 311643
       694 311665 311665 311665 311665
       695 311676 311676 311676 311676
       696 311682 311682 311682 311682
       697 311704 311704 311704 311704
       698 311715 311715 311715 311715
       699 311723 311723 311723 311723
       700 311755 311755 311755 311755
       701 311763 311763 311763 311763
       702 311795 311795 311795 311795
       703 311802 311802 311802 311802
       704 311834 311834 311834 311834
       705 311839 311839 311839 311839
       706 311871 311871 311871 311871
       707 311909 311909 311909 311909
       708 311948 311948 311948 311948
       709 311985 311985 311985 311985
       710 312022 312022 312022 312022
       711 312025 312025 312025 312025
       712 312060 312060 312060 312060
       713 312063 312063 312063 312063
       714 312097 312097 312097 312097
       715 312134 312134 312134 312134
       716 312171 312171 312171 312171
       717 312207 312207 312207 312207
       718 312243 312243 312243 312243
       719 312277 312277 312277 312277
       720 312312 312312 312312 312312
       721 312348 312348 312348 312348
       722 312385 312385 312385 312385
       723 312421 312421 312421 312421
       724 312456 312456 312456 312456
       725 312492 312492 312492 312492
       726 312529 312529 312529 312529
       727 312566 312566 312566 312566
       728 312604 312604 312604 312604
       729 312628 312628 312628 312628
       730 312642 312642 312642 312642
       731 312664 312664 312664 312664
       732 312678 312678 312678 312678
       733 312700 312700 312700 312700
       734 312714 312714 312714 312714
       735 312734 312734 312734 312734
       736 312748 312748 312748 312748
       737 312767 312767 312767 312767
       738 312781 312781 312781 312781
       739 312815 312815 312815 312815
       740 312851 312851 312851 312851
       741 312886 312886 312886 312886
       742 312890 312890 312890 312890
       743 312924 312924 312924 312924
       744 312928 312928 312928 312928
       745 312960 312960 312960 312960
       746 312980 312980 312980 312980
       747 312996 312996 312996 312996
       748 313016 313016 313016 313016
       749 313032 313032 313032 313032
       750 313036 313036 313036 313036
       751 313053 313053 313053 313053
       752 313071 313071 313071 313071
       753 313093 313093 313093 313093
       754 313109 313109 313109 313109
       755 313128 313128 313128 313128
       756 313146 313146 313146 313146
       757 313168 313168 313168 313168
       758 313184 313184 313184 313184
       759 313203 313203 313203 313203
       760 313219 313219 313219 313219
       761 313240 313240 313240 313240
       762 313256 313256 313256 313256
       763 313276 313276 313276 313276
       764 313292 313292 313292 313292
       765 313311 313311 313311 313311
       766 313327 313327 313327 313327
       767 313350 313350 313350 313350
       768 313355 313355 313355 313355
       769 313366 313366 313366 313366
       770 313387 313387 313387 313387
       771 313392 313392 313392 313392
       772 313402 313402 313402 313402
       773 313422 313422 313422 313422
       774 313427 313427 313427 313427
       775 313438 313438 313438 313438
       776 313441 313441 313441 313441
       777 313458 313458 313458 313458
       778 313463 313463 313463 313463
       779 313474 313474 313474 313474
       780 313495 313495 313495 313495
       781 313500 313500 313500 313500
       782 313511 313511 313511 313511
       783 313535 313535 313535 313535
       784 313540 313540 313540 313540
       785 313551 313551 313551 313551
       786 313572 313572 313572 313572
       787 313577 313577 313577 313577
       788 313588 313588 313588 313588
       789 313607 313607 313607 313607
       790 313612 313612 313612 313612
       791 313623 313623 313623 313623
       792 313642 313642 313642 313642
       793 313649 313649 313649 313649
       794 313660 313660 313660 313660
       795 313682 313682 313682 313682
       796 313686 313686 313686 313686
       797 313697 313697 313697 313697
       798 313715 313715 313715 313715
       799 313721 313721 313721 313721
       800 313732 313732 313732 313732
       801 313755 313755 313755 313755
       802 313756 313756 313756 313756
       803 313760 313760 313760 313760
       804 313771 313771 313771 313771
       805 313793 313793 313793 313793
       806 313797 313797 313797 313797
       807 313808 313808 313808 313808
       808 313816 313816 313816 313816
       809 313829 313829 313829 313829
       810 313833 313833 313833 313833
       811 313844 313844 313844 313844
       812 313865 313865 313865 313865
       813 313866 313866 313866 313866
       814 313870 313870 313870 313870
       815 313881 313881 313881 313881
       816 313901 313901 313901 313901
       817 313903 313903 313903 313903
       818 313908 313908 313908 313908
       819 313919 313919 313919 313919
       820 313939 313939 313939 313939
       821 313940 313940 313940 313940
       822 313944 313944 313944 313944
       823 313955 313955 313955 313955
       824 313975 313975 313975 313975
       825 313976 313976 313976 313976
       826 313990 313990 313990 313990
       827 313994 313994 313994 313994
       828 314003 314003 314003 314003
       829 314012 314012 314012 314012
       830 314013 314013 314013 314013
       831 314027 314027 314027 314027
       832 314042 314042 314042 314042
       833 314051 314051 314051 314051
       834 314052 314052 314052 314052
       835 314067 314067 314067 314067
       836 314081 314081 314081 314081
       837 314086 314086 314086 314086
       838 314090 314090 314090 314090
       839 314105 314105 314105 314105
       840 314117 314117 314117 314117
       841 314126 314126 314126 314126
       842 314127 314127 314127 314127
       843 314142 314142 314142 314142
       844 314155 314155 314155 314155
       845 314164 314164 314164 314164
       846 314165 314165 314165 314165
       847 314180 314180 314180 314180
       848 314192 314192 314192 314192
       849 314201 314201 314201 314201
       850 314202 314202 314202 314202
       851 314217 314217 314217 314217
       852 314229 314229 314229 314229
       853 314238 314238 314238 314238
       854 314239 314239 314239 314239
       855 314254 314254 314254 314254
       856 314267 314267 314267 314267
       857 314272 314272 314272 314272
       858 314276 314276 314276 314276
       859 314292 314292 314292 314292
       860 314305 314305 314305 314305
       861 314314 314314 314314 314314
       862 314315 314315 314315 314315
       863 314330 314330 314330 314330
       864 314345 314345 314345 314345
       865 314354 314354 314354 314354
       866 314355 314355 314355 314355
       867 314370 314370 314370 314370
       868 314382 314382 314382 314382
       869 314389 314389 314389 314389
       870 314391 314391 314391 314391
       871 314407 314407 314407 314407
       872 314413 314413 314413 314413
       873 314422 314422 314422 314422
       874 314431 314431 314431 314431
       875 314432 314432 314432 314432
       876 314447 314447 314447 314447
       877 314450 314450 314450 314450
       878 314460 314460 314460 314460
       879 314469 314469 314469 314469
       880 314470 314470 314470 314470
       881 314485 314485 314485 314485
       882 314500 314500 314500 314500
       883 314507 314507 314507 314507
       884 314509 314509 314509 314509
       885 314525 314525 314525 314525
       886 314538 314538 314538 314538
       887 314547 314547 314547 314547
       888 314548 314548 314548 314548
       889 314562 314562 314562 314562
       890 314577 314577 314577 314577
       891 314586 314586 314586 314586
       892 314587 314587 314587 314587
       893 314601 314601 314601 314601
       894 314613 314613 314613 314613
       895 314622 314622 314622 314622
       896 314623 314623 314623 314623
       897 314637 314637 314637 314637
       898 314648 314648 314648 314648
       899 314657 314657 314657 314657
       900 314658 314658 314658 314658
       901 314672 314672 314672 314672
       902 314688 314688 314688 314688
       903 314692 314692 314692 314692
       904 314696 314696 314696 314696
       905 314712 314712 314712 314712
       906 314726 314726 314726 314726
       907 314735 314735 314735 314735
       908 314736 314736 314736 314736
       909 314751 314751 314751 314751
       910 314768 314768 314768 314768
       911 314777 314777 314777 314777
       912 314778 314778 314778 314778
       913 314793 314793 314793 314793
       914 314808 314808 314808 314808
       915 314817 314817 314817 314817
       916 314818 314818 314818 314818
       917 314833 314833 314833 314833
       918 314839 314839 314839 314839
       919 314848 314848 314848 314848
       920 314857 314857 314857 314857
       921 314858 314858 314858 314858
       922 314873 314873 314873 314873
       923 314876 314876 314876 314876
       924 314885 314885 314885 314885
       925 314890 314890 314890 314890
       926 314895 314895 314895 314895
       927 314899 314899 314899 314899
       928 314915 314915 314915 314915
       929 314923 314923 314923 314923
       930 314932 314932 314932 314932
       931 314941 314941 314941 314941
       932 314942 314942 314942 314942
       933 314957 314957 314957 314957
       934 314963 314963 314963 314963
       935 314971 314971 314971 314971
       936 314980 314980 314980 314980
       937 314981 314981 314981 314981
       938 314995 314995 314995 314995
       939 315007 315007 315007 315007
       940 315012 315012 315012 315012
       941 315019 315019 315019 315019
       942 315021 315021 315021 315021
       943 315037 315037 315037 315037
       944 315041 315041 315041 315041
       945 315042 315042 315042 315042
       946 315046 315046 315046 315046
       947 315054 315054 315054 315054
       948 315062 315062 315062 315062
       949 315063 315063 315063 315063
       950 315078 315078 315078 315078
       951 315093 315093 315093 315093
       952 315102 315102 315102 315102
       953 315103 315103 315103 315103
       954 315118 315118 315118 315118
       955 315131 315131 315131 315131
       956 315137 315137 315137 315137
       957 315139 315139 315139 315139
       958 315155 315155 315155 315155
       959 315169 315169 315169 315169
       960 315178 315178 315178 315178
       961 315179 315179 315179 315179
       962 315194 315194 315194 315194
       963 315207 315207 315207 315207
       964 315216 315216 315216 315216
       965 315217 315217 315217 315217
       966 315232 315232 315232 315232
       967 315245 315245 315245 315245
       968 315254 315254 315254 315254
       969 315255 315255 315255 315255
       970 315270 315270 315270 315270
       971 315283 315283 315283 315283
       972 315291 315291 315291 315291
       973 315292 315292 315292 315292
       974 315307 315307 315307 315307
       975 315321 315321 315321 315321
       976 315330 315330 315330 315330
       977 315331 315331 315331 315331
       978 315346 315346 315346 315346
       979 315364 315364 315364 315364
       980 315373 315373 315373 315373
       981 315374 315374 315374 315374
       982 315389 315389 315389 315389
       983 315403 315403 315403 315403
       984 315406 315406 315406 315406
       985 315412 315412 315412 315412
       986 315427 315427 315427 315427
       987 315440 315440 315440 315440
       988 315449 315449 315449 315449
       989 315450 315450 315450 315450
       990 315465 315465 315465 315465
       991 315480 315480 315480 315480
       992 315489 315489 315489 315489
       993 315490 315490 315490 315490
       994 315505 315505 315505 315505
       995 315518 315518 315518 315518
       996 315526 315526 315526 315526
       997 315527 315527 315527 315527
       998 315541 315541 315541 315541
       999 315558 315558 315558 315558
       1000 315567 315567 315567 315567
       1001 315568 315568 315568 315568
       1002 315569 315569 315569 315569
       1003 315583 315583 315583 315583
       1004 315596 315596 315596 315596
       1005 315605 315605 315605 315605
       1006 315606 315606 315606 315606
       1007 315607 315607 315607 315607
       1008 315621 315621 315621 315621
       1009 315633 315633 315633 315633
       1010 315642 315642 315642 315642
       1011 315643 315643 315643 315643
       1012 315644 315644 315644 315644
       1013 315658 315658 315658 315658
       1014 315671 315671 315671 315671
       1015 315674 315674 315674 315674
       1016 315679 315679 315679 315679
       1017 315680 315680 315680 315680
       1018 315694 315694 315694 315694
       1019 315711 315711 315711 315711
       1020 315716 315716 315716 315716
       1021 315717 315717 315717 315717
       1022 315732 315732 315732 315732
       1023 315745 315745 315745 315745
       1024 315754 315754 315754 315754
       1025 315755 315755 315755 315755
       1026 315770 315770 315770 315770
       1027 315783 315783 315783 315783
       1028 315792 315792 315792 315792
       1029 315793 315793 315793 315793
       1030 315808 315808 315808 315808
       1031 315823 315823 315823 315823
       1032 315832 315832 315832 315832
       1033 315833 315833 315833 315833
       1034 315848 315848 315848 315848
       1035 315866 315866 315866 315866
       1036 315871 315871 315871 315871
       1037 315872 315872 315872 315872
       1038 315887 315887 315887 315887
       1039 315898 315898 315898 315898
       1040 315907 315907 315907 315907
       1041 315908 315908 315908 315908
       1042 315923 315923 315923 315923
       1043 315935 315935 315935 315935
       1044 315938 315938 315938 315938
       1045 315944 315944 315944 315944
       1046 315959 315959 315959 315959
       1047 315975 315975 315975 315975
       1048 315984 315984 315984 315984
       1049 315985 315985 315985 315985
       1050 316000 316000 316000 316000
       1051 316014 316014 316014 316014
       1052 316023 316023 316023 316023
       1053 316024 316024 316024 316024
       1054 316038 316038 316038 316038
       1055 316052 316052 316052 316052
       1056 316061 316061 316061 316061
       1057 316062 316062 316062 316062
       1058 316077 316077 316077 316077
       1059 316094 316094 316094 316094
       1060 316102 316102 316102 316102
       1061 316103 316103 316103 316103
       1062 316118 316118 316118 316118
       1063 316132 316132 316132 316132
       1064 316141 316141 316141 316141
       1065 316142 316142 316142 316142
       1066 316156 316156 316156 316156
       1067 316172 316172 316172 316172
       1068 316181 316181 316181 316181
       1069 316182 316182 316182 316182
       1070 316197 316197 316197 316197
       1071 316201 316201 316201 316201
       1072 316203 316203 316203 316203
       1073 316215 316215 316215 316215
       1074 316217 316217 316217 316217
       1075 316223 316223 316223 316223
       1076 316239 316239 316239 316239
       1077 316242 316242 316242 316242
       1078 316254 316254 316254 316254
       1079 316263 316263 316263 316263
       1080 316264 316264 316264 316264
       1081 316279 316279 316279 316279
       1082 316293 316293 316293 316293
       1083 316301 316301 316301 316301
       1084 316302 316302 316302 316302
       1085 316317 316317 316317 316317
       1086 316329 316329 316329 316329
       1087 316335 316335 316335 316335
       1088 316337 316337 316337 316337
       1089 316353 316353 316353 316353
       1090 316366 316366 316366 316366
       1091 316375 316375 316375 316375
       1092 316376 316376 316376 316376
       1093 316391 316391 316391 316391
       1094 316405 316405 316405 316405
       1095 316414 316414 316414 316414
       1096 316415 316415 316415 316415
       1097 316430 316430 316430 316430
       1098 316443 316443 316443 316443
       1099 316449 316449 316449 316449
       1100 316451 316451 316451 316451
       1101 316467 316467 316467 316467
       1102 316479 316479 316479 316479
       1103 316488 316488 316488 316488
       1104 316489 316489 316489 316489
       1105 316504 316504 316504 316504
       1106 316508 316508 316508 316508
       1107 316517 316517 316517 316517
       1108 316526 316526 316526 316526
       1109 316527 316527 316527 316527
       1110 316542 316542 316542 316542
       1111 316553 316553 316553 316553
       1112 316560 316560 316560 316560
       1113 316562 316562 316562 316562
       1114 316578 316578 316578 316578
       1115 316594 316594 316594 316594
       1116 316603 316603 316603 316603
       1117 316604 316604 316604 316604
       1118 316619 316619 316619 316619
       1119 316623 316623 316623 316623
       1120 316626 316626 316626 316626
       1121 316637 316637 316637 316637
       1122 316646 316646 316646 316646
       1123 316647 316647 316647 316647
       1124 316662 316662 316662 316662
       1125 316673 316673 316673 316673
       1126 316680 316680 316680 316680
       1127 316682 316682 316682 316682
       1128 316698 316698 316698 316698
       1129 316719 316719 316719 316719
       1130 316720 316720 316720 316720
       1131 316735 316735 316735 316735
       1132 316748 316748 316748 316748
       1133 316757 316757 316757 316757
       1134 316758 316758 316758 316758
       1135 316773 316773 316773 316773
       1136 316780 316780 316780 316780
       1137 316789 316789 316789 316789
       1138 316797 316797 316797 316797
       1139 316798 316798 316798 316798
       1140 316813 316813 316813 316813
       1141 316819 316819 316819 316819
       1142 316827 316827 316827 316827
       1143 316833 316833 316833 316833
       1144 316836 316836 316836 316836
       1145 316852 316852 316852 316852
       1146 316858 316858 316858 316858
       1147 316865 316865 316865 316865
       1148 316874 316874 316874 316874
       1149 316875 316875 316875 316875
       1150 316890 316890 316890 316890
       1151 316895 316895 316895 316895
       1152 316904 316904 316904 316904
       1153 316912 316912 316912 316912
       1154 316913 316913 316913 316913
       1155 316928 316928 316928 316928
       1156 316936 316936 316936 316936
       1157 316943 316943 316943 316943
       1158 316952 316952 316952 316952
       1159 316953 316953 316953 316953
       1160 316968 316968 316968 316968
       1161 316981 316981 316981 316981
       1162 316986 316986 316986 316986
       1163 316989 316989 316989 316989
       1164 317005 317005 317005 317005
       1165 317018 317018 317018 317018
       1166 317027 317027 317027 317027
       1167 317028 317028 317028 317028
       1168 317043 317043 317043 317043
       1169 317056 317056 317056 317056
       1170 317065 317065 317065 317065
       1171 317066 317066 317066 317066
       1172 317081 317081 317081 317081
       1173 317094 317094 317094 317094
       1174 317103 317103 317103 317103
       1175 317104 317104 317104 317104
       1176 317118 317118 317118 317118
       1177 317130 317130 317130 317130
       1178 317136 317136 317136 317136
       1179 317139 317139 317139 317139
       1180 317155 317155 317155 317155
       1181 317168 317168 317168 317168
       1182 317175 317175 317175 317175
       1183 317176 317176 317176 317176
       1184 317191 317191 317191 317191
       1185 317207 317207 317207 317207
       1186 317210 317210 317210 317210
       1187 317216 317216 317216 317216
       1188 317217 317217 317217 317217
       1189 317232 317232 317232 317232
       1190 317250 317250 317250 317250
       1191 317253 317253 317253 317253
       1192 317259 317259 317259 317259
       1193 317260 317260 317260 317260
       1194 317275 317275 317275 317275
       1195 317289 317289 317289 317289
       1196 317291 317291 317291 317291
       1197 317295 317295 317295 317295
       1198 317298 317298 317298 317298
       1199 317313 317313 317313 317313
       1200 317326 317326 317326 317326
       1201 317328 317328 317328 317328
       1202 317335 317335 317335 317335
       1203 317336 317336 317336 317336
       1204 317347 317347 317347 317347
       1205 317351 317351 317351 317351
       1206 317362 317362 317362 317362
       1207 317365 317365 317365 317365
       1208 317371 317371 317371 317371
       1209 317372 317372 317372 317372
       1210 317383 317383 317383 317383
       1211 317387 317387 317387 317387
       1212 317392 317392 317392 317392
       1213 317404 317404 317404 317404
       1214 317407 317407 317407 317407
       1215 317413 317413 317413 317413
       1216 317414 317414 317414 317414
       1217 317425 317425 317425 317425
       1218 317429 317429 317429 317429
       1219 317432 317432 317432 317432
       1220 317442 317442 317442 317442
       1221 317445 317445 317445 317445
       1222 317451 317451 317451 317451
       1223 317452 317452 317452 317452
       1224 317463 317463 317463 317463
       1225 317467 317467 317467 317467
       1226 317479 317479 317479 317479
       1227 317482 317482 317482 317482
       1228 317488 317488 317488 317488
       1229 317489 317489 317489 317489
       1230 317500 317500 317500 317500
       1231 317504 317504 317504 317504
       1232 317505 317505 317505 317505
       1233 317517 317517 317517 317517
       1234 317520 317520 317520 317520
       1235 317526 317526 317526 317526
       1236 317527 317527 317527 317527
       1237 317538 317538 317538 317538
       1238 317542 317542 317542 317542
       1239 317543 317543 317543 317543
       1240 317557 317557 317557 317557
       1241 317560 317560 317560 317560
       1242 317565 317565 317565 317565
       1243 317566 317566 317566 317566
       1244 317577 317577 317577 317577
       1245 317581 317581 317581 317581
       1246 317582 317582 317582 317582
       1247 317594 317594 317594 317594
       1248 317597 317597 317597 317597
       1249 317603 317603 317603 317603
       1250 317604 317604 317604 317604
       1251 317615 317615 317615 317615
       1252 317619 317619 317619 317619
       1253 317620 317620 317620 317620
       1254 317631 317631 317631 317631
       1255 317634 317634 317634 317634
       1256 317640 317640 317640 317640
       1257 317641 317641 317641 317641
       1258 317655 317655 317655 317655
       1259 317666 317666 317666 317666
       1260 317669 317669 317669 317669
       1261 317675 317675 317675 317675
       1262 317676 317676 317676 317676
       1263 317691 317691 317691 317691
       1264 317692 317692 317692 317692
       1265 317695 317695 317695 317695
       1266 317704 317704 317704 317704
       1267 317707 317707 317707 317707
       1268 317713 317713 317713 317713
       1269 317714 317714 317714 317714
       1270 317729 317729 317729 317729
       1271 317730 317730 317730 317730
       1272 317732 317732 317732 317732
       1273 317733 317733 317733 317733
       1274 317743 317743 317743 317743
       1275 317746 317746 317746 317746
       1276 317752 317752 317752 317752
       1277 317753 317753 317753 317753
       1278 317768 317768 317768 317768
       1279 317769 317769 317769 317769
       1280 317784 317784 317784 317784
       1281 317787 317787 317787 317787
       1282 317793 317793 317793 317793
       1283 317794 317794 317794 317794
       1284 317798 317798 317798 317798
       1285 317809 317809 317809 317809
       1286 317810 317810 317810 317810
       1287 317813 317813 317813 317813
       1288 317824 317824 317824 317824
       1289 317827 317827 317827 317827
       1290 317832 317832 317832 317832
       1291 317833 317833 317833 317833
       1292 317837 317837 317837 317837
       1293 317847 317847 317847 317847
       1294 317848 317848 317848 317848
       1295 317861 317861 317861 317861
       1296 317863 317863 317863 317863
       1297 317869 317869 317869 317869
       1298 317873 317873 317873 317873
       1299 317884 317884 317884 317884
       1300 317885 317885 317885 317885
       1301 317900 317900 317900 317900
       1302 317903 317903 317903 317903
       1303 317910 317910 317910 317910
       1304 317914 317914 317914 317914
       1305 317925 317925 317925 317925
       1306 317926 317926 317926 317926
       1307 317940 317940 317940 317940
       1308 317943 317943 317943 317943
       1309 317950 317950 317950 317950
       1310 317954 317954 317954 317954
       1311 317965 317965 317965 317965
       1312 317966 317966 317966 317966
       1313 317980 317980 317980 317980
       1314 317982 317982 317982 317982
       1315 317989 317989 317989 317989
       1316 317993 317993 317993 317993
       1317 318004 318004 318004 318004
       1318 318005 318005 318005 318005
       1319 318015 318015 318015 318015
       1320 318018 318018 318018 318018
       1321 318025 318025 318025 318025
       1322 318029 318029 318029 318029
       1323 318040 318040 318040 318040
       1324 318041 318041 318041 318041
       1325 318054 318054 318054 318054
       1326 318057 318057 318057 318057
       1327 318064 318064 318064 318064
       1328 318068 318068 318068 318068
       1329 318075 318075 318075 318075
       1330 318079 318079 318079 318079
       1331 318080 318080 318080 318080
       1332 318084 318084 318084 318084
       1333 318092 318092 318092 318092
       1334 318095 318095 318095 318095
       1335 318102 318102 318102 318102
       1336 318106 318106 318106 318106
       1337 318113 318113 318113 318113
       1338 318117 318117 318117 318117
       1339 318118 318118 318118 318118
       1340 318131 318131 318131 318131
       1341 318134 318134 318134 318134
       1342 318141 318141 318141 318141
       1343 318145 318145 318145 318145
       1344 318152 318152 318152 318152
       1345 318156 318156 318156 318156
       1346 318157 318157 318157 318157
       1347 318169 318169 318169 318169
       1348 318172 318172 318172 318172
       1349 318179 318179 318179 318179
       1350 318183 318183 318183 318183
       1351 318190 318190 318190 318190
       1352 318194 318194 318194 318194
       1353 318195 318195 318195 318195
       1354 318207 318207 318207 318207
       1355 318210 318210 318210 318210
       1356 318217 318217 318217 318217
       1357 318221 318221 318221 318221
       1358 318228 318228 318228 318228
       1359 318232 318232 318232 318232
       1360 318233 318233 318233 318233
       1361 318246 318246 318246 318246
       1362 318249 318249 318249 318249
       1363 318256 318256 318256 318256
       1364 318267 318267 318267 318267
       1365 318271 318271 318271 318271
       1366 318272 318272 318272 318272
       1367 318282 318282 318282 318282
       1368 318285 318285 318285 318285
       1369 318292 318292 318292 318292
       1370 318303 318303 318303 318303
       1371 318307 318307 318307 318307
       1372 318308 318308 318308 318308
       1373 318310 318310 318310 318310
       1374 318319 318319 318319 318319
       1375 318323 318323 318323 318323
       1376 318329 318329 318329 318329
       1377 318340 318340 318340 318340
       1378 318344 318344 318344 318344
       1379 318345 318345 318345 318345
       1380 318356 318356 318356 318356
       1381 318359 318359 318359 318359
       1382 318366 318366 318366 318366
       1383 318377 318377 318377 318377
       1384 318381 318381 318381 318381
       1385 318382 318382 318382 318382
       1386 318385 318385 318385 318385
       1387 318392 318392 318392 318392
       1388 318395 318395 318395 318395
       1389 318402 318402 318402 318402
       1390 318413 318413 318413 318413
       1391 318417 318417 318417 318417
       1392 318418 318418 318418 318418
       1393 318423 318423 318423 318423
       1394 318430 318430 318430 318430
       1395 318433 318433 318433 318433
       1396 318440 318440 318440 318440
       1397 318451 318451 318451 318451
       1398 318455 318455 318455 318455
       1399 318456 318456 318456 318456
       1400 318463 318463 318463 318463
       1401 318468 318468 318468 318468
       1402 318471 318471 318471 318471
       1403 318478 318478 318478 318478
       1404 318489 318489 318489 318489
       1405 318493 318493 318493 318493
       1406 318494 318494 318494 318494
       1407 318497 318497 318497 318497
       1408 318501 318501 318501 318501
       1409 318507 318507 318507 318507
       1410 318510 318510 318510 318510
       1411 318517 318517 318517 318517
       1412 318528 318528 318528 318528
       1413 318532 318532 318532 318532
       1414 318533 318533 318533 318533
       1415 318539 318539 318539 318539
       1416 318546 318546 318546 318546
       1417 318549 318549 318549 318549
       1418 318556 318556 318556 318556
       1419 318566 318566 318566 318566
       1420 318570 318570 318570 318570
       1421 318571 318571 318571 318571
       1422 318577 318577 318577 318577
       1423 318584 318584 318584 318584
       1424 318587 318587 318587 318587
       1425 318594 318594 318594 318594
       1426 318605 318605 318605 318605
       1427 318609 318609 318609 318609
       1428 318610 318610 318610 318610
       1429 318614 318614 318614 318614
       1430 318621 318621 318621 318621
       1431 318624 318624 318624 318624
       1432 318631 318631 318631 318631
       1433 318642 318642 318642 318642
       1434 318646 318646 318646 318646
       1435 318647 318647 318647 318647
       1436 318659 318659 318659 318659
       1437 318662 318662 318662 318662
       1438 318669 318669 318669 318669
       1439 318680 318680 318680 318680
       1440 318684 318684 318684 318684
       1441 318685 318685 318685 318685
       1442 318688 318688 318688 318688
       1443 318695 318695 318695 318695
       1444 318698 318698 318698 318698
       1445 318705 318705 318705 318705
       1446 318716 318716 318716 318716
       1447 318720 318720 318720 318720
       1448 318721 318721 318721 318721
       1449 318724 318724 318724 318724
       1450 318727 318727 318727 318727
       1451 318734 318734 318734 318734
       1452 318737 318737 318737 318737
       1453 318754 318754 318754 318754
       1454 318758 318758 318758 318758
       1455 318759 318759 318759 318759
       1456 318765 318765 318765 318765
       1457 318771 318771 318771 318771
       1458 318774 318774 318774 318774
       1459 318780 318780 318780 318780
       1460 318791 318791 318791 318791
       1461 318795 318795 318795 318795
       1462 318796 318796 318796 318796
       1463 318809 318809 318809 318809
       1464 318816 318816 318816 318816
       1465 318819 318819 318819 318819
       1466 318826 318826 318826 318826
       1467 318837 318837 318837 318837
       1468 318841 318841 318841 318841
       1469 318842 318842 318842 318842
       1470 318845 318845 318845 318845
       1471 318850 318850 318850 318850
       1472 318856 318856 318856 318856
       1473 318859 318859 318859 318859
       1474 318866 318866 318866 318866
       1475 318877 318877 318877 318877
       1476 318881 318881 318881 318881
       1477 318882 318882 318882 318882
       1478 318889 318889 318889 318889
       1479 318896 318896 318896 318896
       1480 318899 318899 318899 318899
       1481 318906 318906 318906 318906
       1482 318917 318917 318917 318917
       1483 318921 318921 318921 318921
       1484 318922 318922 318922 318922
       1485 318926 318926 318926 318926
       1486 318933 318933 318933 318933
       1487 318936 318936 318936 318936
       1488 318943 318943 318943 318943
       1489 318954 318954 318954 318954
       1490 318958 318958 318958 318958
       1491 318959 318959 318959 318959
       1492 318963 318963 318963 318963
       1493 318972 318972 318972 318972
       1494 318975 318975 318975 318975
       1495 318982 318982 318982 318982
       1496 318993 318993 318993 318993
       1497 318997 318997 318997 318997
       1498 318998 318998 318998 318998
       1499 319010 319010 319010 319010
       1500 319013 319013 319013 319013
       1501 319020 319020 319020 319020
       1502 319031 319031 319031 319031
       1503 319035 319035 319035 319035
       1504 319036 319036 319036 319036
       1505 319048 319048 319048 319048
       1506 319051 319051 319051 319051
       1507 319058 319058 319058 319058
       1508 319069 319069 319069 319069
       1509 319073 319073 319073 319073
       1510 319074 319074 319074 319074
       1511 319085 319085 319085 319085
       1512 319088 319088 319088 319088
       1513 319095 319095 319095 319095
       1514 319106 319106 319106 319106
       1515 319110 319110 319110 319110
       1516 319111 319111 319111 319111
       1517 319120 319120 319120 319120
       1518 319123 319123 319123 319123
       1519 319130 319130 319130 319130
       1520 319141 319141 319141 319141
       1521 319145 319145 319145 319145
       1522 319146 319146 319146 319146
       1523 319158 319158 319158 319158
       1524 319161 319161 319161 319161
       1525 319168 319168 319168 319168
       1526 319179 319179 319179 319179
       1527 319183 319183 319183 319183
       1528 319184 319184 319184 319184
       1529 319186 319186 319186 319186
       1530 319196 319196 319196 319196
       1531 319199 319199 319199 319199
       1532 319206 319206 319206 319206
       1533 319216 319216 319216 319216
       1534 319220 319220 319220 319220
       1535 319221 319221 319221 319221
       1536 319224 319224 319224 319224
       1537 319225 319225 319225 319225
       1538 319233 319233 319233 319233
       1539 319235 319235 319235 319235
       1540 319241 319241 319241 319241
       1541 319252 319252 319252 319252
       1542 319256 319256 319256 319256
       1543 319257 319257 319257 319257
       1544 319260 319260 319260 319260
       1545 319268 319268 319268 319268
       1546 319271 319271 319271 319271
       1547 319278 319278 319278 319278
       1548 319289 319289 319289 319289
       1549 319293 319293 319293 319293
       1550 319294 319294 319294 319294
       1551 319307 319307 319307 319307
       1552 319310 319310 319310 319310
       1553 319317 319317 319317 319317
       1554 319328 319328 319328 319328
       1555 319332 319332 319332 319332
       1556 319333 319333 319333 319333
       1557 319346 319346 319346 319346
       1558 319348 319348 319348 319348
       1559 319355 319355 319355 319355
       1560 319366 319366 319366 319366
       1561 319370 319370 319370 319370
       1562 319371 319371 319371 319371
       1563 319383 319383 319383 319383
       1564 319386 319386 319386 319386
       1565 319393 319393 319393 319393
       1566 319404 319404 319404 319404
       1567 319408 319408 319408 319408
       1568 319409 319409 319409 319409
       1569 319420 319420 319420 319420
       1570 319427 319427 319427 319427
       1571 319438 319438 319438 319438
       1572 319442 319442 319442 319442
       1573 319443 319443 319443 319443
       1574 319455 319455 319455 319455
       1575 319462 319462 319462 319462
       1576 319473 319473 319473 319473
       1577 319477 319477 319477 319477
       1578 319480 319480 319480 319480
       1579 319481 319481 319481 319481
       1580 319493 319493 319493 319493
       1581 319500 319500 319500 319500
       1582 319511 319511 319511 319511
       1583 319515 319515 319515 319515
       1584 319516 319516 319516 319516
       1585 319519 319519 319519 319519
       1586 319530 319530 319530 319530
       1587 319537 319537 319537 319537
       1588 319548 319548 319548 319548
       1589 319552 319552 319552 319552
       1590 319553 319553 319553 319553
       1591 319557 319557 319557 319557
       1592 319567 319567 319567 319567
       1593 319574 319574 319574 319574
       1594 319585 319585 319585 319585
       1595 319589 319589 319589 319589
       1596 319590 319590 319590 319590
       1597 319602 319602 319602 319602
       1598 319609 319609 319609 319609
       1599 319620 319620 319620 319620
       1600 319625 319625 319625 319625
       1601 319639 319639 319639 319639
       1602 319646 319646 319646 319646
       1603 319657 319657 319657 319657
       1604 319662 319662 319662 319662
       1605 319668 319668 319668 319668
       1606 319670 319670 319670 319670
       1607 319680 319680 319680 319680
       1608 319687 319687 319687 319687
       1609 319698 319698 319698 319698
       1610 319703 319703 319703 319703
       1611 319706 319706 319706 319706
       1612 319708 319708 319708 319708
       1613 319719 319719 319719 319719
       1614 319726 319726 319726 319726
       1615 319737 319737 319737 319737
       1616 319742 319742 319742 319742
       1617 319755 319755 319755 319755
       1618 319762 319762 319762 319762
       1619 319773 319773 319773 319773
       1620 319778 319778 319778 319778
       1621 319791 319791 319791 319791
       1622 319798 319798 319798 319798
       1623 319809 319809 319809 319809
       1624 319814 319814 319814 319814
       1625 319828 319828 319828 319828
       1626 319835 319835 319835 319835
       1627 319846 319846 319846 319846
       1628 319851 319851 319851 319851
       1629 319868 319868 319868 319868
       1630 319873 319873 319873 319873
       1631 319884 319884 319884 319884
       1632 319889 319889 319889 319889
       1633 319892 319892 319892 319892
       1634 319906 319906 319906 319906
       1635 319913 319913 319913 319913
       1636 319924 319924 319924 319924
       1637 319929 319929 319929 319929
       1638 319932 319932 319932 319932
       1639 319944 319944 319944 319944
       1640 319951 319951 319951 319951
       1641 319962 319962 319962 319962
       1642 319967 319967 319967 319967
       1643 319970 319970 319970 319970
       1644 319983 319983 319983 319983
       1645 319990 319990 319990 319990
       1646 320001 320001 320001 320001
       1647 320006 320006 320006 320006
       1648 320010 320010 320010 320010
       1649 320026 320026 320026 320026
       1650 320032 320032 320032 320032
       1651 320043 320043 320043 320043
       1652 320048 320048 320048 320048
       1653 320064 320064 320064 320064
       1654 320070 320070 320070 320070
[...]

      total number of failed solid  elements =    2077
      total number of failed beam   elements =       0
      total number of failed shell  elements =       0
      total number of failed tshell elements =       0
   46216 t 4.8479E-05 dt 1.22E-09 write d3plot file            04/08/22 13:45:01
 f a i l e d   e l e m e n t   r e p o r t  time=  4.9005E-05
     number of failed solid  elements = 1994
     number of failed beam   elements = 0
     number of failed shell  elements = 0
     number of failed tshell elements = 0

 S u m m a r y   F r o m   A l l  P r o c e s s o r s
 f a i l e d   e l e m e n t   r e p o r t  time= 4.90052E-05

 CPU     0 CPU     1 CPU     2 CPU     3                                        
 --------- --------- --------- ---------                                        
      1994        84         0         0  
         0         0         0         0  
         0         0         0         0  
         0         0         0         0  

      total number of failed solid  elements =    2078
      total number of failed beam   elements =       0
      total number of failed shell  elements =       0
      total number of failed tshell elements =       0
   47871 t 5.0499E-05 dt 1.22E-09 write d3plot file            04/08/22 13:45:11
 f a i l e d   e l e m e n t   r e p o r t  time=  5.1471E-05
     number of failed solid  elements = 1994
     number of failed beam   elements = 0
     number of failed shell  elements = 0
     number of failed tshell elements = 0

 S u m m a r y   F r o m   A l l  P r o c e s s o r s
 f a i l e d   e l e m e n t   r e p o r t  time= 5.14712E-05

 CPU     0 CPU     1 CPU     2 CPU     3                                        
 --------- --------- --------- ---------                                        
      1994        85         0         0  
         0         0         0         0  
         0         0         0         0  
         0         0         0         0  

      total number of failed solid  elements =    2079
      total number of failed beam   elements =       0
      total number of failed shell  elements =       0
      total number of failed tshell elements =       0
   49526 t 5.2520E-05 dt 1.22E-09 write d3plot file            04/08/22 13:45:23
 f a i l e d   e l e m e n t   r e p o r t  time=  5.2806E-05
     number of failed solid  elements = 1994
     number of failed beam   elements = 0
     number of failed shell  elements = 0
     number of failed tshell elements = 0

 S u m m a r y   F r o m   A l l  P r o c e s s o r s
 f a i l e d   e l e m e n t   r e p o r t  time= 5.28055E-05

 CPU     0 CPU     1 CPU     2 CPU     3                                        
 --------- --------- --------- ---------                                        
      1994        86         0         0  
         0         0         0         0  
         0         0         0         0  
         0         0         0         0  

      total number of failed solid  elements =    2080
      total number of failed beam   elements =       0
      total number of failed shell  elements =       0
      total number of failed tshell elements =       0
   50000 t 5.3099E-05 dt 1.22E-09 flush i/o buffers            04/08/22 13:45:26
 f a i l e d   e l e m e n t   r e p o r t  time=  5.4499E-05
     number of failed solid  elements = 1994
     number of failed beam   elements = 0
     number of failed shell  elements = 0
     number of failed tshell elements = 0

 S u m m a r y   F r o m   A l l  P r o c e s s o r s
 f a i l e d   e l e m e n t   r e p o r t  time= 5.44988E-05

 CPU     0 CPU     1 CPU     2 CPU     3                                        
 --------- --------- --------- ---------                                        
      1994        86         1         0  
         0         0         0         0  
         0         0         0         0  
         0         0         0         0  

      total number of failed solid  elements =    2081
      total number of failed beam   elements =       0
      total number of failed shell  elements =       0
      total number of failed tshell elements =       0
   51180 t 5.4539E-05 dt 1.22E-09 write d3plot file            04/08/22 13:45:34
 f a i l e d   e l e m e n t   r e p o r t  time=  5.5530E-05
     number of failed solid  elements = 1994
     number of failed beam   elements = 0
     number of failed shell  elements = 0
     number of failed tshell elements = 0

 S u m m a r y   F r o m   A l l  P r o c e s s o r s
 f a i l e d   e l e m e n t   r e p o r t  time= 5.55303E-05

 CPU     0 CPU     1 CPU     2 CPU     3                                        
 --------- --------- --------- ---------                                        
      1994        87         1         0  
         0         0         0         0  
         0         0         0         0  
         0         0         0         0  

      total number of failed solid  elements =    2082
      total number of failed beam   elements =       0
      total number of failed shell  elements =       0
      total number of failed tshell elements =       0
 f a i l e d   e l e m e n t   r e p o r t  time=  5.5930E-05
     number of failed solid  elements = 1994
     number of failed beam   elements = 0
     number of failed shell  elements = 0
     number of failed tshell elements = 0

 S u m m a r y   F r o m   A l l  P r o c e s s o r s
 f a i l e d   e l e m e n t   r e p o r t  time= 5.59296E-05

 CPU     0 CPU     1 CPU     2 CPU     3                                        
 --------- --------- --------- ---------                                        
      1994        88         1         0  
         0         0         0         0  
         0         0         0         0  
         0         0         0         0  

      total number of failed solid  elements =    2083
      total number of failed beam   elements =       0
      total number of failed shell  elements =       0
      total number of failed tshell elements =       0
 f a i l e d   e l e m e n t   r e p o r t  time=  5.6006E-05
     number of failed solid  elements = 1994
     number of failed beam   elements = 0
     number of failed shell  elements = 0
     number of failed tshell elements = 0

 S u m m a r y   F r o m   A l l  P r o c e s s o r s
 f a i l e d   e l e m e n t   r e p o r t  time= 5.60065E-05

 CPU     0 CPU     1 CPU     2 CPU     3                                        
 --------- --------- --------- ---------                                        
      1994        89         1         0  
         0         0         0         0  
         0         0         0         0  
         0         0         0         0  

      total number of failed solid  elements =    2084
      total number of failed beam   elements =       0
      total number of failed shell  elements =       0
      total number of failed tshell elements =       0
   52835 t 5.6559E-05 dt 1.22E-09 write d3plot file            04/08/22 13:45:46
 f a i l e d   e l e m e n t   r e p o r t  time=  5.7102E-05
     number of failed solid  elements = 1994
     number of failed beam   elements = 0
     number of failed shell  elements = 0
     number of failed tshell elements = 0

 S u m m a r y   F r o m   A l l  P r o c e s s o r s
 f a i l e d   e l e m e n t   r e p o r t  time= 5.71015E-05

 CPU     0 CPU     1 CPU     2 CPU     3                                        
 --------- --------- --------- ---------                                        
      1994        90         1         0  
         0         0         0         0  
         0         0         0         0  
         0         0         0         0  

      total number of failed solid  elements =    2085
      total number of failed beam   elements =       0
      total number of failed shell  elements =       0
      total number of failed tshell elements =       0
 f a i l e d   e l e m e n t   r e p o r t  time=  5.7681E-05
     number of failed solid  elements = 1994
     number of failed beam   elements = 0
     number of failed shell  elements = 0
     number of failed tshell elements = 0

 S u m m a r y   F r o m   A l l  P r o c e s s o r s
 f a i l e d   e l e m e n t   r e p o r t  time= 5.76814E-05

 CPU     0 CPU     1 CPU     2 CPU     3                                        
 --------- --------- --------- ---------                                        
      1994        91         1         0  
         0         0         0         0  
         0         0         0         0  
         0         0         0         0  

      total number of failed solid  elements =    2086
      total number of failed beam   elements =       0
      total number of failed shell  elements =       0
      total number of failed tshell elements =       0
 f a i l e d   e l e m e n t   r e p o r t  time=  5.8178E-05
     number of failed solid  elements = 1994
     number of failed beam   elements = 0
     number of failed shell  elements = 0
     number of failed tshell elements = 0

 S u m m a r y   F r o m   A l l  P r o c e s s o r s
 f a i l e d   e l e m e n t   r e p o r t  time= 5.81783E-05

 CPU     0 CPU     1 CPU     2 CPU     3                                        
 --------- --------- --------- ---------                                        
      1994        92         1         0  
         0         0         0         0  
         0         0         0         0  
         0         0         0         0  

      total number of failed solid  elements =    2087
      total number of failed beam   elements =       0
      total number of failed shell  elements =       0
      total number of failed tshell elements =       0
   54490 t 5.8580E-05 dt 1.22E-09 write d3plot file            04/08/22 13:45:57
   55000 t 5.9203E-05 dt 1.22E-09 flush i/o buffers            04/08/22 13:46:01
 f a i l e d   e l e m e n t   r e p o r t  time=  5.9290E-05
     number of failed solid  elements = 1994
     number of failed beam   elements = 0
     number of failed shell  elements = 0
     number of failed tshell elements = 0

 S u m m a r y   F r o m   A l l  P r o c e s s o r s
 f a i l e d   e l e m e n t   r e p o r t  time= 5.92904E-05

 CPU     0 CPU     1 CPU     2 CPU     3                                        
 --------- --------- --------- ---------                                        
      1994        93         1         0  
         0         0         0         0  
         0         0         0         0  
         0         0         0         0  

      total number of failed solid  elements =    2088
      total number of failed beam   elements =       0
      total number of failed shell  elements =       0
      total number of failed tshell elements =       0
 f a i l e d   e l e m e n t   r e p o r t  time=  5.9445E-05
     number of failed solid  elements = 1994
     number of failed beam   elements = 0
     number of failed shell  elements = 0
     number of failed tshell elements = 0

 S u m m a r y   F r o m   A l l  P r o c e s s o r s
 f a i l e d   e l e m e n t   r e p o r t  time= 5.94455E-05

 CPU     0 CPU     1 CPU     2 CPU     3                                        
 --------- --------- --------- ---------                                        
      1994        94         1         0  
         0         0         0         0  
         0         0         0         0  
         0         0         0         0  

      total number of failed solid  elements =    2089
      total number of failed beam   elements =       0
      total number of failed shell  elements =       0
      total number of failed tshell elements =       0
 Element deleted due to damage
     solid element 34402  failed at time  5.9893E-05
 f a i l e d   e l e m e n t   r e p o r t  time=  5.9893E-05
     number of failed solid  elements = 1995
     number of failed beam   elements = 0
     number of failed shell  elements = 0
     number of failed tshell elements = 0

 S u m m a r y   F r o m   A l l  P r o c e s s o r s
 f a i l e d   e l e m e n t   r e p o r t  time= 5.98935E-05

 CPU     0 CPU     1 CPU     2 CPU     3                                        
 --------- --------- --------- ---------                                        
      1995        94         1         0  
         0         0         0         0  
         0         0         0         0  
         0         0         0         0  

      total number of failed solid  elements =    2090
      total number of failed beam   elements =       0
      total number of failed shell  elements =       0
      total number of failed tshell elements =       0
 
 *** termination time reached ***
   55653 t 6.0001E-05 dt 1.22E-09 write d3plot file            04/08/22 13:46:05

 N o r m a l    t e r m i n a t i o n                          04/08/22 13:46:05

 S t o r a g e   a l l o c a t i o n   

 Memory required to complete solution   :     274K
 Additional dynamically allocated memory:      33M
                                   Total:      33M


 P r o c e s s o r   #         0

 T i m i n g   i n f o r m a t i o n
                        CPU(seconds)   %CPU  Clock(seconds) %Clock
  ----------------------------------------------------------------
  Keyword Processing ... 2.0987E-01    0.07     2.9252E-01    0.10
    KW Reading ......... 7.4388E-02    0.03     7.5519E-02    0.02
    KW Writing ......... 4.3562E-02    0.01     6.9756E-02    0.02
  MPP Decomposition .... 4.0383E-01    0.14     6.2212E-01    0.20
    Init Proc .......... 2.9846E-01    0.10     4.4744E-01    0.15
    Decomposition ...... 1.5060E-02    0.01     3.5500E-02    0.01
    Translation ........ 9.0210E-02    0.03     1.3907E-01    0.05
  Initialization ....... 1.2321E-01    0.04     1.5111E-01    0.05
    Init Proc Phase 1 .. 1.0073E-01    0.03     1.0564E-01    0.03
    Init Proc Phase 2 .. 9.8593E-03    0.00     1.2772E-02    0.00
  Element processing ... 1.1552E+02   38.98     1.1631E+02   38.20
    Solids ............. 1.1112E+02   37.49     1.1186E+02   36.74
    E Other ............ 2.4775E-01    0.08     2.4948E-01    0.08
  Binary databases ..... 4.8034E-01    0.16     5.3171E-01    0.17
  ASCII database ....... 3.0310E+00    1.02     8.8371E+00    2.90
  Contact algorithm .... 6.7286E+01   22.70     6.7658E+01   22.22
    Interf. ID         3 1.8197E+01    6.14     1.8291E+01    6.01
    Interf. ID         2 4.2829E+01   14.45     4.3070E+01   14.15
  Rigid Bodies ......... 1.8381E-01    0.06     1.8325E-01    0.06
  DEM .................. 2.0344E+01    6.86     2.0449E+01    6.72
    DEM self contact ... 1.9823E+01    6.69     1.9927E+01    6.55
  Time step size ....... 5.8695E+01   19.80     5.8982E+01   19.37
  Group force file ..... 5.9810E-02    0.02     6.9529E-02    0.02
  Others ............... 2.0396E+00    0.69     2.0674E+00    0.68
    Force Sharing ...... 1.6087E+00    0.54     1.6157E+00    0.53
  Misc. 1 .............. 2.0203E+01    6.82     2.0369E+01    6.69
    Scale Masses ....... 1.7719E-02    0.01     1.7556E-02    0.01
    Force Constraints .. 3.0076E-02    0.01     3.0573E-02    0.01
    Force to Accel ..... 2.0833E+00    0.70     2.0896E+00    0.69
    Constraint Sharing . 3.4588E-02    0.01     3.5115E-02    0.01
    Update RB nodes .... 4.9271E-02    0.02     4.9960E-02    0.02
  Misc. 2 .............. 5.0432E+00    1.70     5.0633E+00    1.66
  Misc. 3 .............. 1.3352E+00    0.45     1.4085E+00    0.46
  Misc. 4 .............. 1.4350E+00    0.48     1.4439E+00    0.47
    Timestep Init ...... 1.0081E+00    0.34     1.0092E+00    0.33
    Apply Loads ........ 3.5650E-01    0.12     3.6235E-01    0.12
  ----------------------------------------------------------------
  T o t a l s            2.9640E+02  100.00     3.0443E+02  100.00


 A v e r a g e s

 T i m i n g   i n f o r m a t i o n
                        CPU(seconds)   %CPU  Clock(seconds) %Clock
  ----------------------------------------------------------------
  Keyword Processing ... 2.7222E-01    0.09     2.9384E-01    0.10
    KW Reading ......... 1.8597E-02    0.01     1.8880E-02    0.01
    KW Writing ......... 1.0890E-02    0.00     1.7439E-02    0.01
  MPP Decomposition .... 5.2729E-01    0.18     6.2091E-01    0.20
    Init Proc .......... 4.0883E-01    0.14     4.4747E-01    0.15
    Decomposition ...... 3.0257E-02    0.01     3.5491E-02    0.01
    Translation ........ 8.8130E-02    0.03     1.3787E-01    0.05
  Initialization ....... 1.3796E-01    0.05     1.5124E-01    0.05
    Init Proc Phase 1 .. 1.0091E-01    0.03     1.0573E-01    0.03
    Init Proc Phase 2 .. 1.1626E-02    0.00     1.2772E-02    0.00
  Element processing ... 1.3158E+02   43.70     1.3234E+02   43.47
    Solids ............. 1.2627E+02   41.94     1.2699E+02   41.71
    E Other ............ 1.4674E-01    0.05     1.4787E-01    0.05
  Binary databases ..... 5.1471E-01    0.17     5.3015E-01    0.17
  ASCII database ....... 2.2873E+00    0.76     3.7506E+00    1.23
  Contact algorithm .... 6.5005E+01   21.59     6.5363E+01   21.47
    Interf. ID         3 1.6899E+01    5.61     1.6988E+01    5.58
    Interf. ID         2 4.1990E+01   13.95     4.2224E+01   13.87
  Rigid Bodies ......... 3.0066E-01    0.10     3.0019E-01    0.10
  DEM .................. 2.1088E+01    7.00     2.1203E+01    6.96
    DEM self contact ... 2.0515E+01    6.81     2.0629E+01    6.78
  Time step size ....... 4.2775E+01   14.21     4.2989E+01   14.12
  Group force file ..... 6.2516E-02    0.02     7.3279E-02    0.02
  Others ............... 2.0713E+00    0.69     2.1064E+00    0.69
    Force Sharing ...... 1.5536E+00    0.52     1.5600E+00    0.51
  Misc. 1 .............. 2.1517E+01    7.15     2.1655E+01    7.11
    Scale Masses ....... 2.2776E-02    0.01     2.2420E-02    0.01
    Force Constraints .. 3.6836E-02    0.01     3.7579E-02    0.01
    Force to Accel ..... 2.0982E+00    0.70     2.1046E+00    0.69
    Constraint Sharing . 4.4807E-02    0.01     4.5371E-02    0.01
    Update RB nodes .... 4.4833E-02    0.01     4.5707E-02    0.02
  Misc. 2 .............. 5.1596E+00    1.71     5.1791E+00    1.70
  Misc. 3 .............. 6.3567E+00    2.11     6.4341E+00    2.11
  Misc. 4 .............. 1.4313E+00    0.48     1.4391E+00    0.47
    Timestep Init ...... 1.0230E+00    0.34     1.0231E+00    0.34
    Apply Loads ........ 3.3836E-01    0.11     3.4516E-01    0.11
  ----------------------------------------------------------------
  T o t a l s            3.0109E+02  100.00     3.0443E+02  100.00

 Problem time       =    6.0001E-05
 Problem cycle      =     55653
 Total CPU time     =       301 seconds (   0 hours  5 minutes  1 seconds)
 CPU time per zone cycle  =        466.409 nanoseconds
 Clock time per zone cycle=        471.098 nanoseconds

 Parallel execution with      4 MPP proc
 NLQ used/max                64/    64

  C P U   T i m i n g   i n f o r m a t i o n

  Processor   Hostname                              CPU/Avg_CPU  CPU(seconds)
  ---------------------------------------------------------------------------
  #       0   compute-0-1                               0.98438   2.9644E+02
  #       1   compute-0-1                               1.00507   3.0267E+02
  #       2   compute-0-1                               1.00524   3.0272E+02
  #       3   compute-0-1                               1.00530   3.0274E+02
  ---------------------------------------------------------------------------
  T o t a l s                                                     1.2046E+03


 Start time   04/08/2022 13:41:01  
 End time     04/08/2022 13:46:05  
 Elapsed time     304 seconds for   55653 cycles using     4 MPP procs
             (      0 hour   5 minutes  4 seconds)

 N o r m a l    t e r m i n a t i o n                          04/08/22 13:46:05
   55653 t 6.0001E-05 dt 1.22E-09 flush i/o buffers            04/08/22 13:46:05
