$# LS-DYNA Keyword file created by LS-PrePost(R) V4.8.25 - 04Jan2022
$# Created on Feb-10-2022 (14:29:11)
*KEYWORD
*TITLE
$#                                                                         title
LS-DYNA keyword deck by LS-PrePost
*CONTROL_ACCURACY
$#     osu       inn    pidosu      iacc    
         1         4         0         0
*CONTROL_BULK_VISCOSITY
$#      q1        q2      type     btype    tstype      
       1.5      0.06        -2         0         0
*CONTROL_CONTACT
$#  slsfac    rwpnal    islchk    shlthk    penopt    thkchg     orien    enmass
       0.2       0.0         1         0         1         0         1         0
$#  usrstr    usrfrc     nsbcs    interm     xpene     ssthk      ecdt   tiedprj
         0         0         0         0       4.0         0         0         0
$#   sfric     dfric       edc       vfc        th     th_sf    pen_sf      
       0.0       0.0       0.0       0.0       0.0       0.0       0.0
$#  ignore    frceng   skiprwg    outseg   spotstp   spotdel   spothin       
         2         1         0         0         0         0       0.0
$#    isym    nserod    rwgaps    rwgdth     rwksf      icov    swradf    ithoff
         0         0         1       0.0       1.0         0       0.0         0
$#  shledg    pstiff    ithcnt    tdcnof     ftall    unused    shltrw    igactc
         0         0         0         0         0                 0.0         0
*CONTROL_DISCRETE_ELEMENT
$#   ndamp     tdamp     frics     fricr     normk    sheark       cap       vtk
       0.0       0.0       0.0       0.0      0.01       0.0         0         0
$#   gamma       vol       ang       gap    unused    ignore      nbuf  parallel

$#   lnorm    lshear    unused     fricd        dc      ncrb        bt        dt
         0         0                 0.0       0.0         0       0.01.00000E20
$#      cp        tc      tfac    
       0.0       0.0       0.0
$# idesoft    sofscl    unused     iskip     
         0       0.1                  20
*CONTROL_ENERGY
$#    hgen      rwen    slnten     rylen     irgen     
         2         1         2         2         1
*CONTROL_HOURGLASS
$#     ihq        qh  
         3       0.1
*CONTROL_OUTPUT
$#   npopt    neecho    nrefup    iaccop     opifs    ipnint    ikedit    iflush
         0         0         0         0       0.0         0       100      5000
$#   iprtf    ierode   tet10s8    msgmax    ipcurv      gmdt   ip1dblt      eocs
         0         1         2        50         0       0.0         0         0
$#   tolev    newleg    frfreq     minfo    solsig    msgflg    cdetol      
         2         0         1         0         0         0      10.0
$# phschng    demden   icrfile   spc2bnd    penout    shlsig   hisnout    engout
         0         0         0         0         0         0         0         0
$#    insf    isolsf      ibsf      issf    mlkbag      
         0         0         0         0         0
*CONTROL_SOLID
$#   esort   fmatrix   niptets    swlocl    psfail   t10jtol    icohed    tet13k
         1         0         4         1         0       0.0         0         0
$#   pm1     pm2     pm3     pm4     pm5     pm6     pm7     pm8     pm9    pm10
       0       0       0       0       0       0       0       0       0       0
*CONTROL_SOLUTION
$#    soln       nlq     isnan     lcint     lcacc     ncdcf     nocop     
         0         0         0       400         1         1         0
*CONTROL_TERMINATION
$#  endtim    endcyc     dtmin    endeng    endmas     nosol     
5.00000E-5         0       0.0       0.01.000000E8         0
*CONTROL_TIMESTEP
$#  dtinit    tssfac      isdo    tslimt     dt2ms      lctm     erode     ms1st
       0.0       0.1         0       0.0       0.0         0         0         0
$#  dt2msf   dt2mslc     imscl    unused    unused     rmscl    unused      ihdo
       0.0         0         0                           0.0                   0
*DATABASE_GLSTAT
$#      dt    binary      lcur     ioopt     
1.00000E-8         0         0         1
*DATABASE_GLSTAT_MASS_PROPERTIES
$#      dt    binary      lcur     ioopt     
1.00000E-8         0         0         1
*DATABASE_MATSUM
$#      dt    binary      lcur     ioopt     
1.00000E-8         0         0         1
*DATABASE_SLEOUT
$#      dt    binary      lcur     ioopt     
1.00000E-8         0         0         1
*DATABASE_BINARY_D3PLOT
$#      dt      lcdt      beam     npltc    psetid      
       0.0         0         0        20         0
$#   ioopt      rate    cutoff    window      type      pset    
         0       0.0       0.0       0.0         0         0
*DATABASE_EXTENT_BINARY
$#   neiph     neips    maxint    strflg    sigflg    epsflg    rltflg    engflg
        20        20         3         0         1         1         1         1
$#  cmpflg    ieverp    beamip     dcomp      shge     stssz    n3thdt   ialemat
         0         0         0         1         1         1         2         1
$# nintsld   pkp_sen      sclp     hydro     msscl     therm    intout    nodout
         0         0       1.0         2         0         0                    
$#    dtdt    resplt     neipb     quadr     cubic     
         0         0         0         0         0
*BOUNDARY_SPC_SET
$#    nsid       cid      dofx      dofy      dofz     dofrx     dofry     dofrz
        51         0         1         1         1         1         1         1
*SET_NODE_LIST
$#     sid       da1       da2       da3       da4    solver      
        51       0.0       0.0       0.0       0.0MECH
$#    nid1      nid2      nid3      nid4      nid5      nid6      nid7      nid8
   5072081   5072205   5072329   5072453   5072577   5072701   5072825   5072949
   5073073   5073197   5073321   5071957   5071833   5071709   5071585   5071461
   5071337   5071213   5071089   5070965   5070841   5070717   5070593   5070469
   5070345   5070221   5070097   5069973   5069849   5069725   5069601   5072080
   5072204   5072328   5072452   5072576   5072700   5072824   5072948   5073072
   5073196   5073320   5071956   5071832   5071708   5071584   5071460   5071336
   5071212   5071088   5070964   5070840   5070716   5070592   5070468   5070344
   5070220   5070096   5069972   5069848   5069724   5069600   5072079   5072203
   5072327   5072451   5072575   5072699   5072823   5072947   5073071   5073195
   5073319   5071955   5071831   5071707   5071583   5071459   5071335   5071211
   5071087   5070963   5070839   5070715   5070591   5070467   5070343   5070219
   5070095   5069971   5069847   5069723   5069599   5072078   5072202   5072326
   5072450   5072574   5072698   5072822   5072946   5073070   5073194   5073318
   5071954   5071830   5071706   5071582   5071458   5071334   5071210   5071086
   5070962   5070838   5070714   5070590   5070466   5070342   5070218   5070094
   5069970   5069846   5069722   5069598   5073322   5073326   5073330   5073334
   5073338   5073342   5073346   5073350   5073354   5073358   5073362   5073366
   5073370   5073374   5073378   5073382   5073386   5073390   5073394   5073398
   5073402   5073406   5073410   5073414   5073418   5073422   5073426   5073430
   5073434   5073438   5073323   5073327   5073331   5073335   5073339   5073343
$ ... 40 like lines cut
*BOUNDARY_SPC_SET
$#    nsid       cid      dofx      dofy      dofz     dofrx     dofry     dofrz
        56         0         1         0         0         0         0         0
*SET_NODE_LIST
$#     sid       da1       da2       da3       da4    solver      
        56       0.0       0.0       0.0       0.0MECH
$#    nid1      nid2      nid3      nid4      nid5      nid6      nid7      nid8
   5069595   5069592   5069589   5069586   5069583   5069580   5069577   5069574
   5069571   5069568   5069565   5069562   5069559   5069556   5069553   5069550
   5069547   5069544   5069541   5069538   5069535   5069532   5069529   5069526
   5069523   5069520   5069517   5069514   5069511   5069508   5069505   5069502
   5069409   5069316   5069223   5069130   5069037   5068944   5068851   5068758
   5068665   5068572   5068479   5068386   5068293   5068200   5068107   5068014
   5067921   5067828   5067735   5067642   5067549   5067456   5067363   5067270
   5067177   5067084   5066991   5066898   5066805   5069226   5069319   5069412
   5069133   5069040   5068947   5068854   5068761   5068668   5068575   5068482
   5068389   5068296   5068203   5068110   5068017   5067924   5067831   5067738
   5067645   5067552   5067459   5067366   5067273   5067180   5067087   5066994
   5066901   5066808   5066715   5066799   5066796   5066793   5066790   5066787
   5066784   5066781   5066778   5066775   5066772   5066769   5066766   5066763
   5066760   5066757   5066754   5066751   5066748   5066745   5066742   5066739
   5066736   5066733   5066730   5066727   5066724   5066721   5066718   5066802
*CONTACT_ERODING_NODES_TO_SURFACE_ID
$#     cid                                                                 title
         3                                                                      
$#    ssid      msid     sstyp     mstyp    sboxid    mboxid       spr       mpr
        50        12         4         2         0         0         0         0
$#      fs        fd        dc        vc       vdc    penchk        bt        dt
      0.01      0.01       0.0       0.0       5.0         0       0.01.00000E20
$#     sfs       sfm       sst       mst      sfst      sfmt       fsf       vsf
       1.0       1.0       0.0       0.0       1.0       1.0       1.0       1.0
$#    isym    erosop      iadj    
         1         1         1
$#    soft    sofscl    lcidab    maxpar     sbopt     depth     bsort    frcfrq
         1       0.1         0     1.025       2.0         2         1         1
*SET_NODE_GENERAL_TITLE
Particles
$#     sid       da1       da2       da3       da4    solver      
        50       0.0       0.0       0.0       0.0MECH
$#  option        e1        e2        e3        e4        e5        e6        e7
PART              10        20        30         0         0         0         0
*SET_PART_LIST_TITLE
Parts
$#     sid       da1       da2       da3       da4    solver      
        12       0.0       0.0       0.0       0.0MECH
$#    pid1      pid2      pid3      pid4      pid5      pid6      pid7      pid8
         1         2         0         0         0         0         0         0
*CONTACT_ERODING_SINGLE_SURFACE
$#     cid                                                                 title
$#    ssid      msid     sstyp     mstyp    sboxid    mboxid       spr       mpr
         0         0         5         0         0         0         0         0
$#      fs        fd        dc        vc       vdc    penchk        bt        dt
      0.01      0.01       0.0       0.0       5.0         0       0.01.00000E20
$#     sfs       sfm       sst       mst      sfst      sfmt       fsf       vsf
       1.0       1.0       0.0       0.0       1.0       1.0       1.0       1.0
$#    isym    erosop      iadj    
         1         1         1
$#    soft    sofscl    lcidab    maxpar     sbopt     depth     bsort    frcfrq
         2       0.1         0     1.025       5.0        35         1         1
*PART
$#                                                                         title
Target
$#     pid     secid       mid     eosid      hgid      grav    adpopt      tmid
         1         1         1         2         0         0         0         0
*SECTION_SOLID_TITLE
Target_Wall_Particles
$#   secid    elform       aet    unused    unused    unused    cohoff    unused
         1         1         0                                       0          
*MAT_USER_DEFINED_MATERIAL_MODELS_TITLE
Aluminium
$#     mid        ro        mt       lmc       nhv    iortho     ibulk        ig
         12.70000E-9        47        48        20         0         1         2
$#   ivect     ifail    itherm    ihyper      ieos      lmca    unused    unused
         1         1         0         0         1         0                    
$        k         g         e        pr      beta       xsi    cp*rho     alpha
$#      p1        p2        p3        p4        p5        p6        p7        p8
  58333.33  26923.08   70000.0       0.3       0.0       0.9     2.4572.32000E-5
$    e0dot        tr        tm        t0
$#      p1        p2        p3        p4        p5        p6        p7        p8
1.00000E-4     293.0     893.0     293.0         0       0.0       0.0       0.0
$        a         b         n         c         m
$#      p1        p2        p3        p4        p5        p6        p7        p8
     270.0       0.0       0.0      0.02       1.0         0       0.0       0.0
$       q1        c1        q2        c2
$#      p1        p2        p3        p4        p5        p6        p7        p8
       2.7    2160.7     707.6      8.94         0       0.0       0.0       0.0
$       dc        wc
$#      p1        p2        p3        p4        p5        p6        p7        p8
       1.0     278.0         0       0.0       0.0       0.0       0.0       0.0
$       tc      tauc       pco
$#      p1        p2        p3        p4        p5        p6        p7        p8
     804.01.00000E20     -1000         0       0.0       0.0       0.0       0.0
*EOS_LINEAR_POLYNOMIAL_TITLE
Linear
$#   eosid        c0        c1        c2        c3        c4        c5        c6
         2       0.0  100000.0       0.0       0.0       0.0       0.0       0.0
$#      e0        v0  
       0.0       1.0
*PART
$#                                                                         title
Wall
$#     pid     secid       mid     eosid      hgid      grav    adpopt      tmid
         2         1         4         0         0         0         0         0
*MAT_ENHANCED_COMPOSITE_DAMAGE_TITLE
mat54
$#     mid        ro        ea        eb      (ec)      prba    (prca)    (prcb)
         43.15100E-8   59540.0   54950.0    9600.0     0.032     0.052     0.056
$#     gab       gbc       gca      (kf)      aopt      2way        ti  
    5214.0    5000.0    5000.0       0.0       2.0       0.0       0.0
$#      xp        yp        zp        a1        a2        a3    mangle      
       0.0       0.0       0.0       1.0       0.0       0.0       0.0
$#      v1        v2        v3        d1        d2        d3    dfailm    dfails
       0.0       0.0       0.0       0.0       1.0       0.0       0.3       0.3
$#   tfail      alph      soft      fbrt     ycfac    dfailt    dfailc       efs
5.00000E-8       0.0       1.0       0.0       2.0       0.0       3.0       0.3
$#      xc        xt        yc        yt        sc      crit      beta    
     531.0     804.0     534.0     773.0     129.0      55.0       0.9
$#     pel      epsf      epsr      tsmd     soft2     
       0.0       0.0       0.0       0.0       1.0
$#  slimt1    slimc1    slimt2    slimc2     slims    ncyred     softg     
       0.0       0.0       0.0       0.0       0.0       0.0       1.0
*PART
$#                                                                         title
Ball
$#     pid     secid       mid     eosid      hgid      grav    adpopt      tmid
         3         2         1         2         0         0         0         0
*SECTION_SOLID_TITLE
Ball
$#   secid    elform       aet    unused    unused    unused    cohoff    unused
         2         1         0                                       0          
*PART
$#                                                                         title
Particle Target
$#     pid     secid       mid     eosid      hgid      grav    adpopt      tmid
        10         1         1         2         0         0         0         0
*PART
$#                                                                         title
Particle Wall
$#     pid     secid       mid     eosid      hgid      grav    adpopt      tmid
        20         1         4         0         0         0         0         0
*PART
$#                                                                         title
Particle Ball
$#     pid     secid       mid     eosid      hgid      grav    adpopt      tmid
        30         1         1         2         0         0         0         0
*MAT_MODIFIED_JOHNSON_COOK_TITLE
Aluminium
$#     mid        ro         e        pr      beta       xsi        cp     alpha
         32.70000E-9   70000.0       0.3       0.0       0.99.100000E82.32000E-5
$#   e0dot        tr        tm        t0     flag1     flag2     
1.00000E-4     293.0     893.0     293.0       0.0       1.0
$#  a/siga       b/b   n/beta0   c/beta1      m/na    
     270.0       0.0       0.0      0.02       1.0
$#    q1/a      c1/n q2/alpha0 c2/alpha1         
       2.7    2160.7     707.6      8.94
$#   dc/dc     pd/wc     d1/na     d2/na     d3/na     d4/na     d5/na     
       1.0     100.0       0.0       0.0       0.0       0.0       0.0
$#      tc      tauc    
     893.01.00000E20
*INITIAL_VELOCITY_GENERATION
$#      id      styp     omega        vx        vy        vz     ivatn      icid
         3         2       0.0   8000000       0.0       0.0         0         0
$#      xc        yc        zc        nx        ny        nz     phase    irigid
       0.0       0.0       0.0       0.0       0.0       0.0         0         0
*DEFINE_ADAPTIVE_SOLID_TO_DES_ID
$#     did                                                               heading
         1                                                                      
$#    ipid     itype        nq     ipdes     isdes       rsf    outdes     ibond
         1         0         1        10         1       1.0         0         0
*DEFINE_ADAPTIVE_SOLID_TO_DES_ID
         2                                                                      
         2         0         1        20         2       1.0         0         0
*DEFINE_ADAPTIVE_SOLID_TO_DES_ID
         3                                                                      
         2         0         1        30         1       1.0         0         0
*EOS_GRUNEISEN
$#   eosid         c        s1        s2        s3     gamao         a        e0
         1   5240000       1.4       0.0       0.0      1.97      0.48       0.0
$#      v0    unused      lcid    
       0.0                   0
*ELEMENT_SOLID_ORTHO
$#   eid     pid      n1      n2      n3      n4      n5      n6      n7      n8
       1       2 5066715 5066716 5066719 5066718 5066808 5066809 5066812 5066811
$#            a1              a2              a3  
             0.0             0.0             1.0
$#            d1              d2              d3  
             0.0            -1.0             0.0
       2       2 5066716 5066717 5066720 5066719 5066809 5066810 5066813 5066812
             0.0             0.0             1.0
             0.0            -1.0             0.0
       3       2 5066718 5066719 5066722 5066721 5066811 5066812 5066815 5066814
             0.0             0.0             1.0
             0.0            -1.0             0.0
       4       2 5066719 5066720 5066723 5066722 5066812 5066813 5066816 5066815
             0.0             0.0             1.0
             0.0            -1.0             0.0
       5       2 5066721 5066722 5066725 5066724 5066814 5066815 5066818 5066817
             0.0             0.0             1.0
             0.0            -1.0             0.0
       6       2 5066722 5066723 5066726 5066725 5066815 5066816 5066819 5066818
             0.0             0.0             1.0
             0.0            -1.0             0.0
       7       2 5066724 5066725 5066728 5066727 5066817 5066818 5066821 5066820
             0.0             0.0             1.0
             0.0            -1.0             0.0
       8       2 5066725 5066726 5066729 5066728 5066818 5066819 5066822 5066821
$ ... 5378 like lines cut
*ELEMENT_SOLID
$#   eid     pid      n1      n2      n3      n4      n5      n6      n7      n8
    1801       1 5069598 5069599 5069603 5069602 5069722 5069723 5069727 5069726
    1802       1 5069599 5069600 5069604 5069603 5069723 5069724 5069728 5069727
    1803       1 5069600 5069601 5069605 5069604 5069724 5069725 5069729 5069728
    1804       1 5069602 5069603 5069607 5069606 5069726 5069727 5069731 5069730
    1805       1 5069603 5069604 5069608 5069607 5069727 5069728 5069732 5069731
    1806       1 5069604 5069605 5069609 5069608 5069728 5069729 5069733 5069732
    1807       1 5069606 5069607 5069611 5069610 5069730 5069731 5069735 5069734
    1808       1 5069607 5069608 5069612 5069611 5069731 5069732 5069736 5069735
    1809       1 5069608 5069609 5069613 5069612 5069732 5069733 5069737 5069736
    1810       1 5069610 5069611 5069615 5069614 5069734 5069735 5069739 5069738
    1811       1 5069611 5069612 5069616 5069615 5069735 5069736 5069740 5069739
    1812       1 5069612 5069613 5069617 5069616 5069736 5069737 5069741 5069740
    1813       1 5069614 5069615 5069619 5069618 5069738 5069739 5069743 5069742
    1814       1 5069615 5069616 5069620 5069619 5069739 5069740 5069744 5069743
    1815       1 5069616 5069617 5069621 5069620 5069740 5069741 5069745 5069744
    1816       1 5069618 5069619 5069623 5069622 5069742 5069743 5069747 5069746
    1817       1 5069619 5069620 5069624 5069623 5069743 5069744 5069748 5069747
    1818       1 5069620 5069621 5069625 5069624 5069744 5069745 5069749 5069748
    1819       1 5069622 5069623 5069627 5069626 5069746 5069747 5069751 5069750
    1820       1 5069623 5069624 5069628 5069627 5069747 5069748 5069752 5069751
$ ... 9680 like lines cut
*NODE
$#   nid               x               y               z      tc      rc  
       1             0.0           -10.0           -10.0       0       0
       2            0.24           -10.0           -10.0       0       0
       3            0.48           -10.0           -10.0       0       0
       4            0.72           -10.0           -10.0       0       0
       5            0.96           -10.0           -10.0       0       0
       6             1.2           -10.0           -10.0       0       0
       7             0.0       -9.759036           -10.0       0       0
       8            0.24       -9.759036           -10.0       0       0
       9            0.48       -9.759036           -10.0       0       0
      10            0.72       -9.759036           -10.0       0       0
      11            0.96       -9.759036           -10.0       0       0
      12             1.2       -9.759036           -10.0       0       0
      13             0.0       -9.518072           -10.0       0       0
      14            0.24       -9.518072           -10.0       0       0
      15            0.48       -9.518072           -10.0       0       0
      16            0.72       -9.518072           -10.0       0       0
      17            0.96       -9.518072           -10.0       0       0
      18             1.2       -9.518072           -10.0       0       0
      19             0.0       -9.277108           -10.0       0       0
      20            0.24       -9.277108           -10.0       0       0
$ ... 21998 like lines cut
*SET_NODE_LIST_TITLE
NODESET(SPC) 52
$#     sid       da1       da2       da3       da4    solver      
        52       0.0       0.0       0.0       0.0MECH
$#    nid1      nid2      nid3      nid4      nid5      nid6      nid7      nid8
     45753     49183     52613     56043     59473     62903     66333     69763
     73193     76623     80053     83483     86913     90343     93773     97203
    100633    104063    107493    110923    114353    117783    121213    124643
    128073    131503    134933    138363    141793    145223    148653    152083
    155513    158943    162373    165803    169233    172663    176093    179523
    182953    186383    189813    193243    196673    200103    203533    206963
    210393    213823    217253    220683    224113    227543    230973    234403
    237833    241263    244693    248123    251553    254983    258413    261843
    265273    268703    272133    275563    278993    282423    285853    289283
    292713    296143    299573    303003    306433    309863    313293    316723
    320153    323583    327013    330443    333873    337303    340733    344163
    347593    351023    354453    357883    361313    364743    368173    371603
    375033    378463    381893    385323    388753    392183    395613    399043
    402473    405903    409333    412763    416193    419623    423053    426483
    429913    433343    436773    440203    443633    447063    450493    453923
    457353    460783    464213    467643    471073    474503    477933    481363
    484793    488223    491653    495083    498513    501943    505373    508803
    512233    515663    519093    522523    525953    529383    532813    536243
    539673    543103    546533    549963    553393    556823    560253    563683
    567113    570543    573973    577403    580833    584263    587693    591123
$ ... 102 like lines cut
*SET_NODE_LIST_TITLE
NODESET(SPC) 53
$#     sid       da1       da2       da3       da4    solver      
        53       0.0       0.0       0.0       0.0MECH
$#    nid1      nid2      nid3      nid4      nid5      nid6      nid7      nid8
    964470    970168    975866    981564    987262    992960    998658   1004356
   1010054   1015752   1021450   1027148   1032846   1038544   1044242   1049940
   1055638   1061336   1067034   1072732   1078430   1084128   1089826   1095524
   1101222   1106920   1112618   1118316   1124014   1129712   1135410   1141108
   1146806   1152504   1158202   1163900   1169598   1175296   1180994   1186692
   1192390   1198088   1203786   1209484   1215182   1220880   1226578   1232276
   1237974   1243672   1249370   1255068   1260766   1266464   1272162   1277860
   1283558   1289256   1294954   1300652   1306350   1312048   1317746   1323444
   1329142   1334840   1340538   1346236   1351934   1357632   1363330   1369028
   1374726   1380424   1386122   1391820   1397518   1403216   1408914   1414612
   1420310   1426008   1431706   1437404   1443102   1448800   1454498   1460196
   1465894   1471592   1477290   1482988   1488686   1494384   1500082   1505780
   1511478   1517176   1522874   1528572   1534270   1539968   1545666   1551364
   1557062   1562760   1568458   1574156   1579854   1585552   1591250   1596948
   1602646   1608344   1614042   1619740   1625438   1631136   1636834   1642532
   1648230   1653928   1659626   1665324   1671022   1676720   1682418   1688116
   1693814   1699512   1705210   1710908   1716606   1722304   1728002   1733700
   1739398   1745096   1750794   1756492   1762190   1767888   1773586   1779284
   1784982   1790680   1796378   1802076   1807774   1813472   1819170   1824868
   1830566   1836264   1841962   1847660   1853358   1859056   1864754   1870452
$ ... 183 like lines cut
*SET_NODE_LIST_TITLE
NODESET(SPC) 54
$#     sid       da1       da2       da3       da4    solver      
        54       0.0       0.0       0.0       0.0MECH
$#    nid1      nid2      nid3      nid4      nid5      nid6      nid7      nid8
   3281159   3284471   3287783   3291095   3294407   3297719   3301031   3304343
   3307655   3310967   3314279   3317591   3320903   3324215   3327527   3330839
   3334151   3337463   3340775   3344087   3347399   3350711   3354023   3357335
   3360647   3363959   3367271   3370583   3373895   3377207   3380519   3383831
   3387143   3390455   3393767   3397079   3400391   3403703   3407015   3410327
   3413639   3416951   3420263   3423575   3426887   3430199   3433511   3436823
   3440135   3443447   3446759   3450071   3453383   3456695   3460007   3463319
   3466631   3469943   3473255   3476567   3479879   3483191   3486503   3489815
   3493127   3496439   3499751   3503063   3506375   3509687   3512999   3516311
   3519623   3522935   3526247   3529559   3532871   3536183   3539495   3542807
   3546119   3549431   3552743   3556055   3559367   3562679   3565991   3569303
   3572615   3575927   3579239   3582551   3585863   3589175   3592487   3595799
   3599111   3602423   3605735   3609047   3612359   3615671   3618983   3622295
   3625607   3628919   3632231   3635543   3638855   3642167   3645479   3648791
   3652103   3655415   3658727   3662039   3665351   3668663   3671975   3675287
   3678599   3681911   3685223   3688535   3691847   3695159   3698471   3701783
   3705095   3708407   3711719   3715031   3718343   3721655   3724967   3728279
   3731591   3734903   3738215   3741527   3744839   3748151   3751463   3754775
   3758087   3761399   3764711   3768023   3771335   3774647   3777959   3781271
   3784583   3787895   3791207   3794519   3797831   3801143   3804455   3807767
$ ... 118 like lines cut
*SET_NODE_LIST_TITLE
NODESET(SPC) 55
$#     sid       da1       da2       da3       da4    solver      
        55       0.0       0.0       0.0       0.0MECH
$#    nid1      nid2      nid3      nid4      nid5      nid6      nid7      nid8
   4195051   4195052   4198153   4198154   4201255   4201256   4204357   4204358
   4207459   4207460   4210561   4210562   4213663   4213664   4216765   4216766
   4219867   4219868   4222969   4222970   4226071   4226072   4229173   4229174
   4232275   4232276   4235377   4235378   4238479   4238480   4241581   4241582
   4244683   4244684   4247785   4247786   4250887   4250888   4253989   4253990
   4257091   4257092   4260193   4260194   4263295   4263296   4266397   4266398
   4269499   4269500   4272601   4272602   4275703   4275704   4278805   4278806
   4281907   4281908   4285009   4285010   4288111   4288112   4291213   4291214
   4294315   4294316   4297417   4297418   4300519   4300520   4303621   4303622
   4306723   4306724   4309825   4309826   4312927   4312928   4316029   4316030
   4319131   4319132   4322233   4322234   4325335   4325336   4328437   4328438
   4331539   4331540   4334641   4334642   4337743   4337744   4340845   4340846
   4343947   4343948   4347049   4347050   4350151   4350152   4353253   4353254
   4356355   4356356   4359457   4359458   4362559   4362560   4365661   4365662
   4368763   4368764   4371865   4371866   4374967   4374968   4378069   4378070
   4381171   4381172   4384273   4384274   4387375   4387376   4390477   4390478
   4393579   4393580   4396681   4396682   4399783   4399784   4402885   4402886
   4405987   4405988   4409089   4409090   4412191   4412192   4415293   4415294
   4418395   4418396   4421497   4421498   4424599   4424600   4427701   4427702
   4430803   4430804   4433905   4433906   4437007   4437008   4440109   4440110
$ ... 261 like lines cut
*END
