$# LS-DYNA Keyword file created by LS-PrePost(R) V4.8.25 - 04Jan2022
$# Created on Feb-10-2022 (13:03:21)
*KEYWORD
*TITLE
$#                                                                         title
LS-DYNA keyword deck by LS-PrePost
*CONTROL_ACCURACY
         1         4         0         0
*CONTROL_BULK_VISCOSITY
       1.5      0.06        -2         0         0
*CONTROL_CONTACT
       0.2       0.0         1         0         1         0         1         0
         0         0         0         0       4.0         0         0         0
       0.0       0.0       0.0       0.0       0.0       0.0       0.0
         2         1         0         0         0         0       0.0
         0         0         1       0.0       1.0         0       0.0         0
         0         0         0         0         0                 0.0         0
*CONTROL_DISCRETE_ELEMENT
       0.0       0.0       0.0       0.0      0.01       0.0         0         0

         0         0                 0.0       0.0         0       0.01.00000E20
       0.0       0.0       0.0
         0       0.1                  20
*CONTROL_ENERGY
         2         1         2         2         1
*CONTROL_HOURGLASS
         3       0.1
*CONTROL_OUTPUT
         0         0         0         0       0.0         0       100      5000
         0         1         2        50         0       0.0         0         0
         2         0         1         0         0         0      10.0
         0         0         0         0         0         0         0         0
         0         0         0         0         0
*CONTROL_SOLID
         1         0         4         1         0       0.0         0         0
       0       0       0       0       0       0       0       0       0       0
*CONTROL_SOLUTION
         0         0         0       400         1         1         0
*CONTROL_TERMINATION
5.00000E-5         0       0.0       0.01.000000E8         0
*CONTROL_TIMESTEP
       0.0       0.1         0       0.0       0.0         0         0         0
       0.0         0         0                           0.0                   0
*DATABASE_GLSTAT
1.00000E-8         0         0         1
*DATABASE_GLSTAT_MASS_PROPERTIES
1.00000E-8         0         0         1
*DATABASE_MATSUM
1.00000E-8         0         0         1
*DATABASE_SLEOUT
1.00000E-8         0         0         1
*DATABASE_BINARY_D3PLOT
       0.0         0         0        20         0
         0       0.0       0.0       0.0         0         0
*DATABASE_EXTENT_BINARY
        20        20         3         0         1         1         1         1
         0         0         0         1         1         1         2         1
         0         0       1.0         2         0         0                    
         0         0         0         0         0
*BOUNDARY_SPC_SET
        57         0         1         1         1         1         1         1
*SET_NODE_LIST_TITLE
NODESET(SPC) 57
        57       0.0       0.0       0.0       0.0MECH
   5127869   5127870   5127871   5127872   5127873   5127874   5127875   5127876
   5127877   5127878   5127879   5127880   5127881   5127882   5127883   5127884
   5127885   5127886   5127887   5127888   5127889   5127890   5127891   5127892
   5127893   5127894   5127895   5127896   5127897   5127898   5127899   5127900
   5127901   5127902   5127903   5127904   5127905   5127906   5127907   5127908
   5127909   5127910   5127911   5127912   5127913   5127914   5127915   5127916
   5127917   5127918   5127919   5127920   5127921   5127922   5127923   5127924
   5127925   5127926   5127927   5127928   5127929   5127930   5127931   5127932
   5127933   5127934   5127992   5127993   5127994   5127995   5127996   5127997
   5128055   5128056   5128057   5128058   5128059   5128060   5128118   5128119
   5128120   5128121   5128122   5128123   5128181   5128182   5128183   5128184
   5128185   5128186   5128244   5128245   5128246   5128247   5128248   5128249
   5128307   5128308   5128309   5128310   5128311   5128312   5128370   5128371
   5128372   5128373   5128374   5128375   5128433   5128434   5128435   5128436
   5128437   5128438   5128496   5128497   5128498   5128499   5128500   5128501
   5128559   5128560   5128561   5128562   5128563   5128564   5128622   5128623
   5128624   5128625   5128626   5128627   5128685   5128686   5128687   5128688
   5128689   5128690   5128748   5128749   5128750   5128751   5128752   5128753
   5128811   5128812   5128813   5128814   5128815   5128816   5128874   5128875
   5128876   5128877   5128878   5128879   5128937   5128938   5128939   5128940
$ ... 10 like lines cut
*BOUNDARY_SPC_SET
        58         0         1         0         0         0         0         0
*SET_NODE_LIST_TITLE
NODESET(SPC) 58
        58       0.0       0.0       0.0       0.0MECH
   5124125   5124121   5124117   5124113   5124109   5124105   5124101   5124097
   5124093   5124089   5124085   5124081   5124077   5124073   5124069   5124065
   5124061   5124057   5124053   5124049   5124045   5124041   5124037   5124033
   5124029   5124025   5124129   5124133   5124137   5124141   5124145   5124521
   5124645   5124769   5124893   5125017   5125141   5125265   5125389   5125513
   5125637   5125761   5125885   5126009   5126133   5126257   5126381   5126505
   5126629   5126753   5126877   5127001   5127125   5127249   5127373   5127497
   5127621   5127745   5124397   5124273   5124149   5124641   5124765   5124889
   5125013   5125137   5125261   5125385   5125509   5125633   5125757   5125881
   5126005   5126129   5126253   5126377   5126501   5126625   5126749   5126873
   5126997   5127121   5127245   5127369   5127493   5127617   5127741   5127865
   5124517   5124393   5124269   5127829   5127825   5127821   5127817   5127813
   5127809   5127805   5127801   5127797   5127793   5127789   5127785   5127781
   5127777   5127773   5127769   5127765   5127761   5127757   5127753   5127749
   5127833   5127837   5127841   5127845   5127849   5127853   5127857   5127861
*CONTACT_ERODING_NODES_TO_SURFACE_ID
         3                                                                      
        50        12         4         2         0         0         0         0
      0.01      0.01       0.0       0.0       5.0         0       0.01.00000E20
       1.0       1.0       0.0       0.0       1.0       1.0       1.0       1.0
         1         1         1
         1       0.1         0     1.025       2.0         2         1         1
*SET_NODE_GENERAL_TITLE
Particles
        50       0.0       0.0       0.0       0.0MECH
PART              10        20        30         0         0         0         0
*SET_PART_LIST_TITLE
Parts
        12       0.0       0.0       0.0       0.0MECH
         1         2         3         0         0         0         0         0
*CONTACT_ERODING_SINGLE_SURFACE
         0         0         5         0         0         0         0         0
      0.01      0.01       0.0       0.0       5.0         0       0.01.00000E20
       1.0       1.0       0.0       0.0       1.0       1.0       1.0       1.0
         1         1         1
         2       0.1         0     1.025       5.0        35         1         1
*PART
front
         1         1         1         2         0         0         0         0
*SECTION_SOLID_TITLE
Target_Wall_Particles
         1         1         0                                       0          
*MAT_USER_DEFINED_MATERIAL_MODELS_TITLE
Aluminium
         12.70000E-9        47        48        20         0         1         2
         1         1         0         0         1         0                    
$        k         g         e        pr      beta       xsi    cp*rho     alpha
  58333.33  26923.08   70000.0       0.3       0.0       0.9     2.4572.32000E-5
$    e0dot        tr        tm        t0
1.00000E-4     293.0     893.0     293.0         0       0.0       0.0       0.0
$        a         b         n         c         m
     270.0       0.0       0.0      0.02       1.0         0       0.0       0.0
$       q1        c1        q2        c2
       2.7    2160.7     707.6      8.94         0       0.0       0.0       0.0
$       dc        wc
       1.0     278.0         0       0.0       0.0       0.0       0.0       0.0
$       tc      tauc       pco
     804.01.00000E20     -1000         0       0.0       0.0       0.0       0.0
*EOS_LINEAR_POLYNOMIAL_TITLE
Linear
         2       0.0  100000.0       0.0       0.0       0.0       0.0       0.0
       0.0       1.0
*PART
back
         2         1         4         0         0         0         0         0
*MAT_ENHANCED_COMPOSITE_DAMAGE_TITLE
mat54composite
         43.15100E-8   59540.0   54950.0    9600.0     0.032     0.052     0.056
    5214.0    5000.0    5000.0       0.0       2.0       0.0       0.0
       0.0       0.0       0.0       1.0       0.0       0.0       0.0
       0.0       0.0       0.0       0.0       1.0       0.0       0.3       0.3
5.00000E-8       0.0       1.0       0.0       2.0       0.0       3.0       0.3
     531.0     804.0     534.0     773.0     129.0      55.0       0.9
       0.0       0.0       0.0       0.0       1.0
       0.0       0.0       0.0       0.0       0.0       0.0       1.0
*PART
ball
         3         2         1         2         0         0         0         0
*SECTION_SOLID_TITLE
Ball
         2         1         0                                       0          
*PART
Particle Target
        10         1         1         2         0         0         0         0
*PART
Particle Wall
        20         1         4         0         0         0         0         0
*PART
Particle Ball
        30         1         1         2         0         0         0         0
*MAT_MODIFIED_JOHNSON_COOK_TITLE
Aluminium
         32.70000E-9   70000.0       0.3       0.0       0.99.100000E82.32000E-5
1.00000E-4     293.0     893.0     293.0       0.0       1.0
     270.0       0.0       0.0      0.02       1.0
       2.7    2160.7     707.6      8.94
       1.0     100.0       0.0       0.0       0.0       0.0       0.0
     893.01.00000E20
*INITIAL_VELOCITY_GENERATION
         3         2       0.0   8000000       0.0       0.0         0         0
       0.0       0.0       0.0       0.0       0.0       0.0         0         0
*DEFINE_ADAPTIVE_SOLID_TO_DES_ID
         1                                                                      
         1         0         1        10         1       1.0         0         0
*DEFINE_ADAPTIVE_SOLID_TO_DES_ID
         2                                                                      
         2         0         1        20         2       1.0         0         0
*DEFINE_ADAPTIVE_SOLID_TO_DES_ID
         3                                                                      
         3         0         1        30         1       1.0         0         0
*EOS_GRUNEISEN
         1   5240000       1.4       0.0       0.0      1.97      0.48       0.0
       0.0                   0
*ELEMENT_SOLID
 1728560       2 5124025 5124026 5124030 5124029 5124149 5124150 5124154 5124153
 1728561       2 5124026 5124027 5124031 5124030 5124150 5124151 5124155 5124154
 1728562       2 5124027 5124028 5124032 5124031 5124151 5124152 5124156 5124155
 1728563       2 5124029 5124030 5124034 5124033 5124153 5124154 5124158 5124157
 1728564       2 5124030 5124031 5124035 5124034 5124154 5124155 5124159 5124158
 1728565       2 5124031 5124032 5124036 5124035 5124155 5124156 5124160 5124159
 1728566       2 5124033 5124034 5124038 5124037 5124157 5124158 5124162 5124161
 1728567       2 5124034 5124035 5124039 5124038 5124158 5124159 5124163 5124162
 1728568       2 5124035 5124036 5124040 5124039 5124159 5124160 5124164 5124163
 1728569       2 5124037 5124038 5124042 5124041 5124161 5124162 5124166 5124165
 1728570       2 5124038 5124039 5124043 5124042 5124162 5124163 5124167 5124166
 1728571       2 5124039 5124040 5124044 5124043 5124163 5124164 5124168 5124167
 1728572       2 5124041 5124042 5124046 5124045 5124165 5124166 5124170 5124169
 1728573       2 5124042 5124043 5124047 5124046 5124166 5124167 5124171 5124170
 1728574       2 5124043 5124044 5124048 5124047 5124167 5124168 5124172 5124171
 1728575       2 5124045 5124046 5124050 5124049 5124169 5124170 5124174 5124173
 1728576       2 5124046 5124047 5124051 5124050 5124170 5124171 5124175 5124174
 1728577       2 5124047 5124048 5124052 5124051 5124171 5124172 5124176 5124175
 1728578       2 5124049 5124050 5124054 5124053 5124173 5124174 5124178 5124177
 1728579       2 5124050 5124051 5124055 5124054 5124174 5124175 5124179 5124178
$ ... 7064 like lines cut
*NODE
       1             0.0           -10.0           -10.0       0       0
       2            0.24           -10.0           -10.0       0       0
       3            0.48           -10.0           -10.0       0       0
       4            0.72           -10.0           -10.0       0       0
       5            0.96           -10.0           -10.0       0       0
       6             1.2           -10.0           -10.0       0       0
       7             0.0       -9.759036           -10.0       0       0
       8            0.24       -9.759036           -10.0       0       0
       9            0.48       -9.759036           -10.0       0       0
      10            0.72       -9.759036           -10.0       0       0
      11            0.96       -9.759036           -10.0       0       0
      12             1.2       -9.759036           -10.0       0       0
      13             0.0       -9.518072           -10.0       0       0
      14            0.24       -9.518072           -10.0       0       0
      15            0.48       -9.518072           -10.0       0       0
      16            0.72       -9.518072           -10.0       0       0
      17            0.96       -9.518072           -10.0       0       0
      18             1.2       -9.518072           -10.0       0       0
      19             0.0       -9.277108           -10.0       0       0
      20            0.24       -9.277108           -10.0       0       0
$ ... 16904 like lines cut
*SET_NODE_LIST_TITLE
NODESET(SPC) 51
        51       0.0       0.0       0.0       0.0MECH
     41833     41834     41835     41836     41837     41838     41839     41840
     41841     41842     41843     41844     41845     41846     41847     41848
     41849     41850     41851     41852     41853     41854     41855     41856
     41857     41858     41859     41860     41861     41862     41863     41864
     41865     41866     41867     41868     41869     41870     41871     41872
     41873     41874     41875     41876     41877     41878     41879     41880
     41881     41882     41883     41884     41885     41886     41887     41888
     41889     41890     41891     41892     41893     41894     41895     41896
     41897     41898     41899     41900     41901     41902     41903     41904
     41905     41906     41907     41908     41909     41910     41911     41912
     41913     41914     41915     41916     41917     41918     41919     41920
     41921     41922     41923     41924     41925     41926     41927     41928
     41929     41930     41931     41932     41933     41934     41935     41936
     41937     41938     41939     41940     41941     41942     41943     41944
     41945     41946     41947     41948     41949     41950     41951     41952
     41953     41954     41955     41956     41957     41958     41959     41960
     41961     41962     41963     41964     41965     41966     41967     41968
     41969     41970     41971     41972     41973     41974     41975     41976
     41977     41978     41979     41980     41981     41982     41983     41984
     41985     41986     41987     41988     41989     41990     41991     41992
$ ... 229 like lines cut
*SET_NODE_LIST_TITLE
NODESET(SPC) 52
        52       0.0       0.0       0.0       0.0MECH
     45753     49183     52613     56043     59473     62903     66333     69763
     73193     76623     80053     83483     86913     90343     93773     97203
    100633    104063    107493    110923    114353    117783    121213    124643
    128073    131503    134933    138363    141793    145223    148653    152083
    155513    158943    162373    165803    169233    172663    176093    179523
    182953    186383    189813    193243    196673    200103    203533    206963
    210393    213823    217253    220683    224113    227543    230973    234403
    237833    241263    244693    248123    251553    254983    258413    261843
    265273    268703    272133    275563    278993    282423    285853    289283
    292713    296143    299573    303003    306433    309863    313293    316723
    320153    323583    327013    330443    333873    337303    340733    344163
    347593    351023    354453    357883    361313    364743    368173    371603
    375033    378463    381893    385323    388753    392183    395613    399043
    402473    405903    409333    412763    416193    419623    423053    426483
    429913    433343    436773    440203    443633    447063    450493    453923
    457353    460783    464213    467643    471073    474503    477933    481363
    484793    488223    491653    495083    498513    501943    505373    508803
    512233    515663    519093    522523    525953    529383    532813    536243
    539673    543103    546533    549963    553393    556823    560253    563683
    567113    570543    573973    577403    580833    584263    587693    591123
$ ... 102 like lines cut
*SET_NODE_LIST_TITLE
NODESET(SPC) 53
        53       0.0       0.0       0.0       0.0MECH
    964470    970168    975866    981564    987262    992960    998658   1004356
   1010054   1015752   1021450   1027148   1032846   1038544   1044242   1049940
   1055638   1061336   1067034   1072732   1078430   1084128   1089826   1095524
   1101222   1106920   1112618   1118316   1124014   1129712   1135410   1141108
   1146806   1152504   1158202   1163900   1169598   1175296   1180994   1186692
   1192390   1198088   1203786   1209484   1215182   1220880   1226578   1232276
   1237974   1243672   1249370   1255068   1260766   1266464   1272162   1277860
   1283558   1289256   1294954   1300652   1306350   1312048   1317746   1323444
   1329142   1334840   1340538   1346236   1351934   1357632   1363330   1369028
   1374726   1380424   1386122   1391820   1397518   1403216   1408914   1414612
   1420310   1426008   1431706   1437404   1443102   1448800   1454498   1460196
   1465894   1471592   1477290   1482988   1488686   1494384   1500082   1505780
   1511478   1517176   1522874   1528572   1534270   1539968   1545666   1551364
   1557062   1562760   1568458   1574156   1579854   1585552   1591250   1596948
   1602646   1608344   1614042   1619740   1625438   1631136   1636834   1642532
   1648230   1653928   1659626   1665324   1671022   1676720   1682418   1688116
   1693814   1699512   1705210   1710908   1716606   1722304   1728002   1733700
   1739398   1745096   1750794   1756492   1762190   1767888   1773586   1779284
   1784982   1790680   1796378   1802076   1807774   1813472   1819170   1824868
   1830566   1836264   1841962   1847660   1853358   1859056   1864754   1870452
$ ... 183 like lines cut
*SET_NODE_LIST_TITLE
NODESET(SPC) 54
        54       0.0       0.0       0.0       0.0MECH
   3281159   3284471   3287783   3291095   3294407   3297719   3301031   3304343
   3307655   3310967   3314279   3317591   3320903   3324215   3327527   3330839
   3334151   3337463   3340775   3344087   3347399   3350711   3354023   3357335
   3360647   3363959   3367271   3370583   3373895   3377207   3380519   3383831
   3387143   3390455   3393767   3397079   3400391   3403703   3407015   3410327
   3413639   3416951   3420263   3423575   3426887   3430199   3433511   3436823
   3440135   3443447   3446759   3450071   3453383   3456695   3460007   3463319
   3466631   3469943   3473255   3476567   3479879   3483191   3486503   3489815
   3493127   3496439   3499751   3503063   3506375   3509687   3512999   3516311
   3519623   3522935   3526247   3529559   3532871   3536183   3539495   3542807
   3546119   3549431   3552743   3556055   3559367   3562679   3565991   3569303
   3572615   3575927   3579239   3582551   3585863   3589175   3592487   3595799
   3599111   3602423   3605735   3609047   3612359   3615671   3618983   3622295
   3625607   3628919   3632231   3635543   3638855   3642167   3645479   3648791
   3652103   3655415   3658727   3662039   3665351   3668663   3671975   3675287
   3678599   3681911   3685223   3688535   3691847   3695159   3698471   3701783
   3705095   3708407   3711719   3715031   3718343   3721655   3724967   3728279
   3731591   3734903   3738215   3741527   3744839   3748151   3751463   3754775
   3758087   3761399   3764711   3768023   3771335   3774647   3777959   3781271
   3784583   3787895   3791207   3794519   3797831   3801143   3804455   3807767
$ ... 118 like lines cut
*SET_NODE_LIST_TITLE
NODESET(SPC) 55
        55       0.0       0.0       0.0       0.0MECH
   4195051   4195052   4198153   4198154   4201255   4201256   4204357   4204358
   4207459   4207460   4210561   4210562   4213663   4213664   4216765   4216766
   4219867   4219868   4222969   4222970   4226071   4226072   4229173   4229174
   4232275   4232276   4235377   4235378   4238479   4238480   4241581   4241582
   4244683   4244684   4247785   4247786   4250887   4250888   4253989   4253990
   4257091   4257092   4260193   4260194   4263295   4263296   4266397   4266398
   4269499   4269500   4272601   4272602   4275703   4275704   4278805   4278806
   4281907   4281908   4285009   4285010   4288111   4288112   4291213   4291214
   4294315   4294316   4297417   4297418   4300519   4300520   4303621   4303622
   4306723   4306724   4309825   4309826   4312927   4312928   4316029   4316030
   4319131   4319132   4322233   4322234   4325335   4325336   4328437   4328438
   4331539   4331540   4334641   4334642   4337743   4337744   4340845   4340846
   4343947   4343948   4347049   4347050   4350151   4350152   4353253   4353254
   4356355   4356356   4359457   4359458   4362559   4362560   4365661   4365662
   4368763   4368764   4371865   4371866   4374967   4374968   4378069   4378070
   4381171   4381172   4384273   4384274   4387375   4387376   4390477   4390478
   4393579   4393580   4396681   4396682   4399783   4399784   4402885   4402886
   4405987   4405988   4409089   4409090   4412191   4412192   4415293   4415294
   4418395   4418396   4421497   4421498   4424599   4424600   4427701   4427702
   4430803   4430804   4433905   4433906   4437007   4437008   4440109   4440110
$ ... 261 like lines cut
*SET_NODE_LIST_TITLE
NODESET(SPC) 56
        56       0.0       0.0       0.0       0.0MECH
   4195051   4198153   4201255   4204357   4207459   4210561   4213663   4216765
   4219867   4222969   4226071   4229173   4232275   4235377   4238479   4241581
   4244683   4247785   4250887   4253989   4257091   4260193   4263295   4266397
   4269499   4272601   4275703   4278805   4281907   4285009   4288111   4291213
   4294315   4297417   4300519   4303621   4306723   4309825   4312927   4316029
   4319131   4322233   4325335   4328437   4331539   4334641   4337743   4340845
   4343947   4347049   4350151   4353253   4356355   4359457   4362559   4365661
   4368763   4371865   4374967   4378069   4381171   4384273   4387375   4390477
   4393579   4396681   4399783   4402885   4405987   4409089   4412191   4415293
   4418395   4421497   4424599   4427701   4430803   4433905   4437007   4440109
   4443211   4446313   4449415   4452517   4455619   4458721   4461823   4464925
   4468027   4471129   4474231   4477333   4480435   4483537   4486639   4489741
   4492843   4495945   4499047   4502149   4505251   4508353   4511455   4514557
   4517659   4520761   4523863   4526965   4530067   4533169   4536271   4539373
   4542475   4545577   4548679   4551781   4554883   4557985   4561087   4564189
   4567291   4570393   4573495   4576597   4579699   4582801   4585903   4589005
   4592107   4595209   4598311   4601413   4604515   4607617   4610719   4613821
   4616923   4620025   4623127   4626229   4629331   4632433   4635535   4638637
   4641739   4644841   4647943   4651045   4654147   4657249   4660351   4663453
   4666555   4669657   4672759   4675861   4678963   4682065   4685167   4688269
$ ... 121 like lines cut
*END
