      Date: 04/04/2022      Time: 13:34:08  

     ___________________________________________________
     |                                                 |
     |  Livermore Software Technology, LLC             |
     |                                                 |
     |  7374 Las Positas Road                          |
     |  Livermore, CA 94551                            |
     |  Tel: (925) 449-2500  Fax: (925) 449-2507       |
     |  www.lstc.com                                   |
     |_________________________________________________|
     |                                                 |
     |  LS-DYNA, A Program for Nonlinear Dynamic       |
     |  Analysis of Structures in Three Dimensions     |
     |  Version : mpp d R12.0.0   Date: 06/19/2020     |
     |  Revision: 148931          Time: 17:26:40       |
     |                                                 |
     |  Features enabled in this version:              |
     |    Distributed Memory Parallel                  |
     |    CESE CHEMISTRY EM ICFD STOCHASTIC_PARTICLES  |
     |    FFTW (multi-dimensional FFTW Library)        |
     |    ANSYS License (ANSYS202)                     |
     |    BigID  option                                |
     |                                                 |
     |  Licensed to: Norwegian University of Science an|
     |  Issued by  : Pascale.SaneGuttin_02092022       |
     |                                                 |
     |  Platform   : Intel-MPI 2018 Xeon64             |
     |  OS Level   : Linux CentOS 6.5 uom              |
     |  Compiler   : Intel Fortran Compiler 16.0 AVX-2 |
     |  Hostname   : compute-0-6                       |
     |  Precision  : Double precision (I8R8)           |
     |  SVN Version: 148978                            |
     |                                                 |
     |  Unauthorized use infringes LST copyrights      |
     |_________________________________________________|


 Input file: MJC.key                                                                         

 The native file format       : 64-bit small endian
 Memory size from default     :   100000000,            0
 Memory size from default     :   100000000,    100000000

 Memory for the head node
 Memory installed (MB)        :       257785
 Memory available (MB)        :       239805

 ********  notice  ********  notice  ********  notice  ********
 *                                                            *
 * This is the LS-DYNA Finite Element code.                   *
 *                                                            *
 * Neither LST nor the authors assume any responsibility for  *
 * the validity, accuracy, or applicability of any results    *
 * obtained from this system. Users must verify their own     *
 * results.                                                   *
 *                                                            *
 * LST endeavors to make the LS-DYNA code as complete,        *
 * accurate and easy to use as possible.                      *
 * Suggestions and comments are welcomed.  Please report any  *
 * errors encountered in either the documentation or results  *
 * immediately to LST through your site focus.                *
 *                                                            *
 * Copyright (C) 1990-2020                                    *
 * by Livermore Software Technology, LLC                      *
 * All rights reserved                                        *
 *                                                            *
 ********  notice  ********  notice  ********  notice  ********
 
LSTC Environment Variables:
 
LSTC_LICENSE_SERVER=129.241.89.45
LSTC_LICENSE=network
 

 Beginning of keyword reader                                   04/04/22 13:34:08

                                                               04/04/22 13:34:08
 Open include file: 2platemesh.key

********** echo of pfile data **********


*********** end of pfile data **********


         **            ******  **********    *******                            
         **           *******  **********   ********                            
         **          **            **      ***                                  
         **           *******      **      **                                   
         **                 **     **      ***                                  
         *********   ********      **       ********                            
         *********   ******        **         ******                            
                                                                                
                                                                                
**           ******    *******    **    **  *      **    *****                  
**          *******    ********   **    **  **     **   *******                 
**         **          **   ***   **    **  ***    **  ***   ***                
**           **        **   ***   **    **  ***    **  ***   ***                
**             **   ** **    **     ****    ** **  **  *********                
**               **    **   ***      **     **    ***  **     **                
**               **    **   ***      **     **    ***  **     **                
*********  *******     *******       **     **     **  **     **                
*********  *******     ******        **     **      *  **     **                

            L I S T   O F   K E Y W O R D   C O U N T S   

total # of *AIRBAG_option..........................       0
total # of *AIRBAG_INTERACTION.....................       0
total # of *AIRBAG_PARTICLE........................       0
total # of *AIRBAG_REFERENCE_GEOMETRY..............       0
total # of *AIRBAG_SHELL_REFERENCE_GEOMETRY........       0
total # of *ALE_AMBIENT_HYDROSTATIC................       0
total # of *ALE_BURN_SWITCH_MMG....................       0
total # of *ALE_COUPLING_NODAL.....................       0
total # of *ALE_ELEMENT_POROSITY...................       0
total # of *ALE_FAIL_SWITCH_MMG....................       0
total # of *ALE_FRAGMENTATION......................       0
total # of *ALE_FSI_SWITCH_MMG.....................       0
total # of *ALE_INJECTION..........................       0
total # of *ALE_MAPPING............................       0
total # of *ALE_PRESCRIBED_MOTION..................       0
total # of *ALE_REFERENCE_SYSTEM_GROUP.............       0
total # of *ALE_SWITCH_MMG.........................       0
total # of *ALE_MESH_INTERFACE.....................       0
total # of *ALE_STRUCTURED_MESH....................       0
total # of *ALE_STRUCTURED_MESH_VOLUME_FILLING.....       0
total # of *ALE_STRUCTURED_FSI.....................       0
total # of *BOUNDARY_ACOUSTIC_COUPLING.............       0
total # of *BOUNDARY_ACOUSTIC_COUPLING_MISMATCH....       0
total # of *BOUNDARY_ACOUSTIC_MAPPING..............       0
total # of *BOUNDARY_ACOUSTIC_COUPLING_DISSIPATIVE.       0
total # of *BOUNDARY_ACOUSTIC_COMPLEX..............       0
total # of *BOUNDARY_ACOUSTIC_MECHANICAL...........       0
total # of *BOUNDARY_ACOUSTIC_FREE_SURFACE.........       0
total # of *BOUNDARY_ACOUSTIC_NON_REFLECTING.......       0
total # of *BOUNDARY_AEROHEATING_SEGMENT...........       0
total # of *BOUNDARY_ALE_MAPPING...................       0
total # of *BOUNDARY_ALE_MIXING_LENGTH.............       0
total # of *BOUNDARY_AMBIENT.......................       0
total # of *BOUNDARY_CONVECTION_SEGMENT............       0
total # of *BOUNDARY_CONVECTION_SET................       0
total # of *BOUNDARY_CYCLIC........................       0
total # of *BOUNDARY_DE_NON_REFLECTING.............       0
total # of *BOUNDARY_ELEMENT_METHOD_FLOW...........       0
total # of *BOUNDARY_ELEMENT_METHOD_CONTROL........       0
total # of *BOUNDARY_ELEMENT_METHOD_NEIGHBOR.......       0
total # of *BOUNDARY_ELEMENT_METHOD_WAKE...........       0
total # of *BOUNDARY_ELEMENT_METHOD_SYMMETRY.......       0
total # of *BOUNDARY_FIRE_SEGMENT..................       0
total # of *BOUNDARY_FLUX_SEGMENT..................       0
total # of *BOUNDARY_FLUX_SET......................       0
total # of *BOUNDARY_FLUX_TRAJECTORY ..............       0
total # of *BOUNDARY_NON_REFLECTING................       0
total # of *BOUNDARY_MCOL..........................       0
total # of *BOUNDARY_PORE_FLUID ...................       0
total # of *BOUNDARY_PRESCRIBED_MOTION_NODE.+RIGID.       0
total # of *BOUNDARY_PRESCRIBED_FINAL_GEOMETRY.....       0
total # of *BOUNDARY_PRESCRIBED_MOTION_SET.........       0
total # of *BOUNDARY_PRESCRIBED_ORIENTATION........       0
total # of *BOUNDARY_PRESCRIBED_ACCELEROMETER......       0
total # of *BOUNDARY_PRESSURE_OUTFLOW_SEGMENT......       0
total # of *BOUNDARY_PRESSURE_OUTFLOW_SET..........       0
total # of *BOUNDARY_PWP_OPTION ...................       0
total # of *BOUNDARY_RADIATION_ENCLOSURE ..........       0
total # of *BOUNDARY_RADIATION_SEGMENT.(Type 1)....       0
total # of *BOUNDARY_RADIATION_SET.................       0
total # of *BOUNDARY_RADIATION_SEGMENT.(Type 2)....       0
total # of *BOUNDARY_RADIATION_SET.(Type 2)........       0
total # of *BOUNDARY_SLIDING_PLANE.................       0
total # of *BOUNDARY_SOUND_ABSORBING_LAYER.........       0
total # of *BOUNDARY_SPC_NODE......................       0
total # of *BOUNDARY_SPC_SET.......................       2
total # of *BOUNDARY_SPH_FLOW......................       0
total # of *BOUNDARY_SPH_SYMMETRY_PLANE............       0
total # of *BOUNDARY_SPH_NON_REFLECTING............       0
total # of *BOUNDARY_SYMMETRY_FAILURE..............       0
total # of *BOUNDARY_TEMPERATURE_NODE..............       0
total # of *BOUNDARY_TEMPERATURE_SET...............       0
total # of *BOUNDARY_THERMAL_BULKFLOW_SET..........       0
total # of *BOUNDARY_THERMAL_BULKFLOW_ELEMENT......       0
total # of *BOUNDARY_THERMAL_BULKNODE..............       0
total # of *BOUNDARY_THERMAL_WELD..................       0
total # of *BOUNDARY_USA...........................       0
total # of *BOUNDARY_PZEPOT........................       0
total # of *LOAD_PZECHARGE ........................       0
total # of *CESE_BOUNDARY_AXISYMMETRIC_PART........       0
total # of *CESE_BOUNDARY_AXISYMMETRIC_PART_SET....       0
total # of *CESE_BOUNDARY_AXISYMMETRIC_SEGMENT.....       0
total # of *CESE_BOUNDARY_AXISYMMETRIC_SET.........       0
total # of *CESE_BOUNDARY_CONJ_HEAT_PART...........       0
total # of *CESE_BOUNDARY_CONJ_HEAT_PART_SET.......       0
total # of *CESE_BOUNDARY_CONJ_HEAT_SEGMENT........       0
total # of *CESE_BOUNDARY_CONJ_HEAT_SET............       0
total # of *CESE_BOUNDARY_CYCLIC_PART..............       0
total # of *CESE_BOUNDARY_CYCLIC_PART_SET..........       0
total # of *CESE_BOUNDARY_CYCLIC_SEGMENT...........       0
total # of *CESE_BOUNDARY_CYCLIC_SET...............       0
total # of *CESE_BOUNDARY_FSI_PART.................       0
total # of *CESE_BOUNDARY_FSI_PART_SET.............       0
total # of *CESE_BOUNDARY_FSI_SEGMENT..............       0
total # of *CESE_BOUNDARY_FSI_SET..................       0
total # of *CESE_BOUNDARY_NON_REFLECTIVE_PART......       0
total # of *CESE_BOUNDARY_NON_REFLECTIVE_PART_SET..       0
total # of *CESE_BOUNDARY_NON_REFLECTIVE_SEGMENT...       0
total # of *CESE_BOUNDARY_NON_REFLECTIVE_SET.......       0
total # of *CESE_BOUNDARY_PRESCRIBED_PART..........       0
total # of *CESE_BOUNDARY_PRESCRIBED_PART_SET......       0
total # of *CESE_BOUNDARY_PRESCRIBED_SEGMENT.......       0
total # of *CESE_BOUNDARY_PRESCRIBED_SET...........       0
total # of *CESE_BOUNDARY_REFLECTIVE_PART..........       0
total # of *CESE_BOUNDARY_REFLECTIVE_PART_SET......       0
total # of *CESE_BOUNDARY_REFLECTIVE_SEGMENT.......       0
total # of *CESE_BOUNDARY_REFLECTIVE_SET...........       0
total # of *CESE_BOUNDARY_SLIDING_PART.............       0
total # of *CESE_BOUNDARY_SLIDING_PART_SET.........       0
total # of *CESE_BOUNDARY_SLIDING_SEGMENT..........       0
total # of *CESE_BOUNDARY_SLIDING_SET..............       0
total # of *CESE_BOUNDARY_SOLID_WALL_PART..........       0
total # of *CESE_BOUNDARY_SOLID_WALL_PART_SET......       0
total # of *CESE_BOUNDARY_SOLID_WALL_SEGMENT.......       0
total # of *CESE_BOUNDARY_SOLID_WALL_SET...........       0
total # of *CESE_CHEMISTRY_D3PLOT..................       0
total # of *CESE_CONTROL_SOLVER....................       0
total # of *CESE_CONTROL_TIMESTEP..................       0
total # of *CESE_CONTROL_LIMITER...................       0
total # of *CESE_CONTROL_MESH_MOV..................       0
total # of *CESE_CONTROL_TURBULENCE................       0
total # of *CESE_DRAG..............................       0
total # of *CESE_EOS...............................       0
total # of *CESE_FSI_EXCLUDE.......................       0
total # of *CESE_DEFINE_POINT......................       0
total # of *CESE_INITIAL...........................       0
total # of *CESE_INITIAL_CHEMISTRY.................       0
total # of *CESE_INITIAL_CHEMISTRY_ELEMENT.........       0
total # of *CESE_INITIAL_CHEMISTRY_PART............       0
total # of *CESE_INITIAL_CHEMISTRY_SET.............       0
total # of *CESE_INITIAL_SET.......................       0
total # of *CESE_INITIAL_SEGMENT...................       0
total # of *CESE_MAT...............................       0
total # of *CESE_PART..............................       0
total # of *CESE_PART_MESH.........................       0
total # of *CESE_SURFACE_MECHSSID_D3PLOT...........       0
total # of *CESE_SURFACE_MECHVARS_D3PLOT...........       0
total # of *CHEMISTRY_COMPOSITION..................       0
total # of *CHEMISTRY_CONTROL_0D...................       0
total # of *CHEMISTRY_CONTROL_1D...................       0
total # of *CHEMISTRY_CONTROL_CSP..................       0
total # of *CHEMISTRY_CONTROL_FULL.................       0
total # of *CHEMISTRY_CONTROL_INFLATOR.............       0
total # of *CHEMISTRY_CONTROL_ZND..................       0
total # of *CHEMISTRY_DET_INITIATION...............       0
total # of *CHEMISTRY_INFLATOR_PROPERTIES..........       0
total # of *CHEMISTRY_PATH.........................       0
total # of *COMPONENT_GEBOD........................       0
total # of *COMPONENT_GEBOD_JOINT..................       0
total # of *COMPONENT_HYBRIDIII....................       0
total # of *COMPONENT_HYBRIDIII_JOINT..............       0
total # of *CONSTRAINED_BEAM_IN_SOLID..............       0
total # of *CONSTRAINED_BUTT_WELD..................       0
total # of *CONSTRAINED_EXTRA_NODES................       0
total # of *CONSTRAINED_EXTRA_NODES_SET............       0
total # of *CONSTRAINED_GLOBAL.....................       0
total # of *CONSTRAINED_INTERPOLATION..............       0
total # of *CONSTRAINED_JOINT_type.................       0
total # of *CONSTRAINED_JOINT_COOR_type............       0
total # of *CONSTRAINED_JOINT_..._FAILURE..........       0
total # of *CONSTRAINED_JOINT_USER_FORCE...........       0
total # of *CONSTRAINED_JOINT_STIFFNESS_type.......       0
total # of *CONSTRAINED_LAGRANGE_IN_SOLID..........       0
total # of *CONSTRAINED_LINEAR.....................       0
total # of *CONSTRAINED_LINEAR_LOCAL...............       0
total # of *CONSTRAINED_NODAL_RIGID_BODY_option....       0
total # of *CONSTRAINED_NODE_SET...................       0
total # of *CONSTRAINED_RIGID_BODIES...............       0
total # of *CONSTRAINED_RIGID_BODY_STOPPERS........       0
total # of *CONSTRAINED_SHELL-SOLID................       0
total # of *CONSTRAINED_SPLINE.....................       0
total # of *CONSTRAINED_SPOTWELD+CONSTRAINED_RIVET.       0
total # of *CONSTRAINED_SPR2/INTERPOLATION_SPOTWELD       0
total # of *CONSTRAINED_TIE-BREAK..................       0
total # of *CONSTRAINED_TIE-NODE-FAILURE...........       0
total # of *CONTACT_option.........................       2
total # of *CONTACT_GEOMETRIC_option...............       0
total # of *CONTACT_GUIDED_CABLE...................       0
total # of *CONTACT_1D.............................       0
total # of *CONTACT_2D.............................       0
total # of *CONTACT_2D_AUTOMATIC...................       0
total # of *CONTROL_ACOUSTIC.......................       0
total # of *CONTROL_ADAPTIVITY.....................       0
total # of *CONTROL_ALE...(see CARDs 25&26)........       0
total # of *CONTROL_AIRBAG.........................       0
total # of *CONTROL_BULK_VISCOSITY.................       1
total # of *CONTROL_CHECK..........................       0
total # of *CONTROL_CONTACT........................       1
total # of *CONTROL_COUPLING.......................       0
total # of *CONTROL_CPM............................       0
total # of *CONTROL_CPU............................       0
total # of *CONTROL_DYNAMIC_RELAXATION (DAMPING)...       0
total # of *CONTROL_EFG............................       0
total # of *CONTROL_ENERGY.........................       1
total # of *CONTROL_EXPLOSIVE_SHADOW...............       0
total # of *CONTROL_FREQUENCY_DOMAIN...............       0
total # of *CONTROL_FREQUENCY_RESPONSE_FUNCTION....       0
total # of *CONTROL_HOURGLASS......................       1
total # of *MPP_option.............................       0
total # of *CONTROL_IMPLICIT_AUTO..................       0
total # of *CONTROL_IMPLICIT_BUCKLE................       0
total # of *CONTROL_IMPLICIT_CONSISTENT_MASS.......       0
total # of *CONTROL_IMPLICIT_DYNAMICS..............       0
total # of *CONTROL_IMPLICIT_EIGENVALUE............       0
total # of *CONTROL_IMPLICIT_FORMING...............       0
total # of *CONTROL_IMPLICIT_GENERAL...............       0
total # of *CONTROL_IMPLICIT_INERTIA_RELIEF........       0
total # of *CONTROL_IMPLICIT_JOINTS................       0
total # of *CONTROL_IMPLICIT_MODAL_DYNAMIC.........       0
total # of *CONTROL_IMPLICIT_MODAL_DYNAMIC_DAMPING.       0
total # of *CONTROL_IMPLICIT_MODAL_DYNAMIC_MODE....       0
total # of *CONTROL_IMPLICIT_MODES.................       0
total # of *CONTROL_IMPLICIT_ORDERING..............       0
total # of *CONTROL_IMPLICIT_RESIDUAL_VECTOR.......       0
total # of *CONTROL_IMPLICIT_ROTATIONAL_DYNAMICS...       0
total # of *CONTROL_IMPLICIT_SOLUTION..............       0
total # of *CONTROL_IMPLICIT_SOLVER................       0
total # of *CONTROL_IMPLICIT_STABILIZAION..........       0
total # of *CONTROL_IMPLICIT_STATIC_CONDENSATION...       0
total # of *CONTROL_IMPLICIT_TERMINATION...........       0
total # of *CONTROL_MAT............................       0
total # of *CONTROL_NONLOCAL.......................       0
total # of *CONTROL_OUTPUT.........................       1
total # of *CONTROL_PARALLEL.......................       0
total # of *CONTROL_REFINE_ALE.....................       0
total # of *CONTROL_REFINE_ALE2D...................       0
total # of *CONTROL_REFINE_SHELL...................       0
total # of *CONTROL_REFINE_SOLID...................       0
total # of *CONTROL_SHELL..........................       0
total # of *CONTROL_SOLID..........................       1
total # of *CONTROL_SOLUTION.......................       1
total # of *CONTROL_SPH............................       0
total # of *CONTROL_SUBCYCLE.......................       0
total # of *CONTROL_TERMINATION....................       1
total # of *CONTROL_THERMAL_SOLVER.................       0
total # of *CONTROL_THERMAL_TIMESTEP...............       0
total # of *CONTROL_THERMAL_NONLINEAR..............       0
total # of *CONTROL_THERMAL_EIGENVALUE.............       0
total # of *CONTROL_TIMESTEP.......................       1
total # of *CONTROL_UNITS..........................       0
total # of *CONTROL_VIBRO_ACOUSTIC.................       0
total # of *COUPLE_TO_OTHER_CODES..................       0
total # of *DAMPING_FREQUENCY_RANGE................       0
total # of *DAMPING_FREQUENCY_RANGE_DEFORM.........       0
total # of *DAMPING_GLOBAL.........................       0
total # of *DAMPING_PART_MASS......................       0
total # of *DAMPING_PART_MASS_SET..................       0
total # of *DAMPING_PART_STIFFNESS.................       0
total # of *DAMPING_PART_STIFFNESS_SET.............       0
total # of *DAMPING_PART_STRUCTURAL................       0
total # of *DAMPING_PART_STRUCTURAL_SET............       0
total # of *DAMPING_RELATIVE.......................       0
total # of *DAMPING_STRUCTURAL.....................       0
total # of *CONTROL_DISCRETE_SPHERE................       1
total # of *DATABASE_ABSTAT........................       0
total # of *DATABASE_ATDOUT........................       0
total # of *DATABASE_AVSFLT........................       0
total # of *DATABASE_BEARING.......................       0
total # of *DATABASE_BNDOUT........................       0
total # of *DATABASE_CPM_SENSOR....................       0
total # of *DATABASE_CURVOUT.......................       0
total # of *DATABASE_DISBOUT.......................       0
total # of *DATABASE_DCFAIL........................       0
total # of *DATABASE_DEFGEO........................       0
total # of *DATABASE_DEFORC........................       0
total # of *DATABASE_DEMASSFLOW....................       0
total # of *DATABASE_SPHMASSFLOW...................       0
total # of *DATABASE_DESTAT........................       0
total # of *DATABASE_ELOUT.........................       0
total # of *DATABASE_FSI...........................       0
total # of *DATABASE_FSI_SENSOR....................       0
total # of *DATABASE_GCEOUT........................       0
total # of *DATABASE_GLSTAT........................       2
total # of *DATABASE_H3OUT.........................       0
total # of *DATABASE_JNTFORC.......................       0
total # of *DATABASE_MASSOUT.......................       0
total # of *DATABASE_MATSUM........................       1
total # of *DATABASE_MPGS.......... ...............       0
total # of *DATABASE_MOVIE.........................       0
total # of *DATABASE_NCFORC........................       0
total # of *DATABASE_NODFOR........................       0
total # of *DATABASE_NODOUT........................       0
total # of *DATABASE_PBSTAT........................       0
total # of *DATABASE_PGSTAT........................       0
total # of *DATABASE_PG_SENSOR.....................       0
total # of *DATABASE_PLLYOUT.......................       0
total # of *DATABASE_PROFILE.......................       0
total # of *DATABASE_PRTUBE........................       0
total # of *DATABASE_PYRO..........................       0
total # of *DATABASE_RBDOUT........................       0
total # of *DATABASE_RCFORC_MOMENT.................       0
total # of *DATABASE_RCFORC........................       0
total # of *DATABASE_RWFORC........................       0
total # of *DATABASE_SBTOUT........................       0
total # of *DATABASE_SECFORC.......................       0
total # of *DATABASE_SLEOUT........................       1
total # of *DATABASE_SPCFORC.......................       0
total # of *DATABASE_SPH...........................       0
total # of *DATABASE_TRACER........................       0
total # of *DATABASE_TRACER_ALE....................       0
total # of *DATABASE_TRACER_GENERAL................       0
total # of *DATABASE_TRACER_GENERATE...............       0
total # of *DATABASE_SUPERPLASTIC..................       0
total # of *DATABASE_SWFORC........................       0
total # of *DATABASE_TPRINT........................       0
total # of *DATABASE_TRHIST........................       0
total # of *DATABASE_BINARY_D3PLOT.................       1
total # of *DATABASE_BINARY_D3THDT.................       0
total # of *DATABASE_BINARY_D3PART.................       0
total # of *DATABASE_BINARY_D3DRFL.................       0
total # of *DATABASE_BINARY_D3DUMP.................       0
total # of *DATABASE_BINARY_RUNRSF.................       0
total # of *DATABASE_BINARY_INTFOR.................       0
total # of *DATABASE_BINARY_FSIFOR.................       0
total # of *DATABASE_BINARY_CPMFOR.................       0
total # of *DATABASE_BINARY_PBMFOR.................       0
total # of *DATABASE_BINARY_PGFOR..................       0
total # of *DATABASE_BINARY_DEMFOR.................       0
total # of *DATABASE_BINARY_BLSTFOR................       0
total # of *DATABASE_CROSS_SECTION_option..........       0
total # of *DATABASE_D3MAX.........................       0
total # of *DATABASE_EXTENT_AVS....................       0
total # of *DATABASE_EXTENT_MOVIE .................       0
total # of *DATABASE_EXTENT_MPGS...................       0
total # of *DATABASE_EXTENT_BINARY.................       1
total # of *DATABASE_EXTENT_BINARY_COMP............       0
total # of *DATABASE_EXTENT_D3PART.................       0
total # of *DATABASE_EXTENT_INTFOR.................       0
total # of *DATABASE_FREQUENCY_ASCII_option........       0
total # of *DATABASE_FREQUENCY_BINARY_D3ACC........       0
total # of *DATABASE_FREQUENCY_BINARY_D3ACS........       0
total # of *DATABASE_FREQUENCY_BINARY_D3ATV........       0
total # of *DATABASE_FREQUENCY_BINARY_D3ERP........       0
total # of *DATABASE_FREQUENCY_BINARY_D3FTG........       0
total # of *DATABASE_FREQUENCY_BINARY_D3PSD........       0
total # of *DATABASE_FREQUENCY_BINARY_D3RMS........       0
total # of *DATABASE_FREQUENCY_BINARY_D3SPCM.......       0
total # of *DATABASE_FREQUENCY_BINARY_D3SSD........       0
total # of *DATABASE_FREQUENCY_BINARY_D3ZCF........       0
total # of *DATABASE_HISTORY_NODE_option...........       0
total # of *DATABASE_HISTORY_SOLID_option..........       0
total # of *DATABASE_HISTORY_BEAM_option...........       0
total # of *DATABASE_HISTORY_SHELL_option..........       0
total # of *DATABASE_HISTORY_SPH_option............       0
total # of *DATABASE_HISTORY_TSHELL_option.........       0
total # of *DATABASE_NODAL_FORCE_GROUP.............       0
total # of *DATABASE_POWER_SPECTRAL_DENSITY........       0
total # of *DATABASE_POWER_SPECTRAL_DENSITY_FREQUE.       0
total # of *DATABASE_PWP_FLOW .....................       0
total # of *DEFINE_ADAPTIVE_SOLID_TO_DES...........       3
total # of *DEFINE_ADAPTIVE_SOLID_TO_HBOND.........       0
total # of *DEFINE_ADAPTIVE_SOLID_TO_SPH...........       0
total # of *DEFINE_BEAM_SOLID_COUPLING.............       0
total # of *DEFINE_BOX.............................       0
total # of *DEFINE_CONSTRUCTION_STAGES ............       0
total # of *DEFINE_CONTACT_EXCLUSION...............       0
total # of *DEFINE_COORDINATE_option...............       0
total # of *DEFINE_CPM_BAG_INTERACTION.............       0
total # of *DEFINE_CPM_CHAMBER.....................       0
total # of *DEFINE_CPM_GAS_PROPERTIES..............       0
total # of *DEFINE_CPM_NPDATA......................       0
total # of *DEFINE_CPM_VENT........................       0
total # of *DEFINE_CURVE...........................       0
total # of *DEFINE_CURVE_DUPLICATE.................       0
total # of *DEFINE_CURVE_ENTITY....................       0
total # of *DEFINE_CURVE_FUNCTION..................       0
total # of *DEFINE_DE_ACTIVE_REGION................       0
total # of *DEFINE_DE_FLOW_DRAG....................       0
total # of *DEFINE_DE_INJECTION....................       0
total # of *DEFINE_DE_TO_SURFACE_COUPLING..........       0
total # of *DEFINE_DE_TO_SURFACE_EROSION...........       0
total # of *DEFINE_DE_TO_SURFACE_TIED..............       0
total # of *DEFINE_DE_TO_BEAM_COUPLING.............       0
total # of *DEFINE_DE_BOND.........................       0
total # of *DEFINE_DE_BOND_BY_PART.................       0
total # of *DEFINE_DE_HBOND........................       0
total # of *DEFINE_DE_BY_PART......................       0
total # of *DEFINE_DE_MASSFLOW_PLANE...............       0
total # of *DEFINE_DE_COHESIVE.....................       0
total # of *DEFINE_FRACTURE........................       0
total # of *DEFINE_FRICTION........................       0
total # of *DEFINE_FUNCTION........................       0
total # of *DEFINE_GROUND_MOTION...................       0
total # of *ALE_MESH_CYLINDER......................       0
total # of *SPH_MESH_CYLINDER......................       0
total # of *SPH_MESH_BOX...........................       0
total # of *ALE_MESH_BOX...........................       0
total # of *DEFINE_MULTI_SHEET_CONNECTORS..........       0
total # of *DEFINE_PLANE...........................       0
total # of *DEFINE_PARTICLE_BLAST..................       0
total # of *DEFINE_PBLAST_HEGEO....................       0
total # of *DEFINE_PBLAST_AIRGEO...................       0
total # of *DEFINE_PBLAST_SENSOR...................       0
total # of *DEFINE_PRESSURE_TUBE...................       0
total # of *DEFINE_QUASAR_COUPLING.................       0
total # of *DEFINE_SPH_ACTIVE_REGION...............       0
total # of *DEFINE_SPH_INJECTION...................       0
total # of *DEFINE_SPH_MASSFLOW_PLANE..............       0
total # of *DEFINE_VECTOR..........................       0
total # of *DEFINE_VECTOR_NODE.....................       0
total # of *DEFINE_SD_ORIENTATION..................       0
total # of *DEFINE_ELEMENT_DEATH_SOLID.............       0
total # of *DEFINE_ELEMENT_DEATH_BEAM..............       0
total # of *DEFINE_ELEMENT_DEATH_SHELL.............       0
total # of *DEFINE_ELEMENT_DEATH_TSHELL............       0
total # of *DEFINE_PG_BAG_INTERACTION..............       0
total # of *DEFINE_PG_CHAMBER......................       0
total # of *DEFINE_PG_GAS_PROPERTIES...............       0
total # of *DEFINE_PG_VENT.........................       0
total # of *DEFINE_SHELL_ELEMENT_DEATH_THICK.......       0
total # of *DEFINE_SOUND_ABSORBING_MATERIAL........       0
total # of *DEFINE_ELEMENT_EROSION_SHELL...........       0
total # of *DEFINE_ELEMENT_EROSION_TSHELL..........       0
total # of *DEFINE_SPH_TO_SPH_COUPLING.............       0
total # of *DEFINE_SPH_DE_COUPLING.................       0
total # of *DEFINE_SPH_MESH_SURFACE................       0
total # of *DEFINE_SPOTWELD_RUPTURE_STRESS.........       0
total # of *DEFINE_SPOTWELD_RUPTURE_PARAMETER......       0
total # of *DEFINE_STAGED_CONSTRUCTION_PART .......       0
total # of *DEFINE_FP_TO_SURFACE_COUPLING..........       0
total # of *DATABASE_BKSTAT........................       0
total # of *DEFORMABLE_TO_RIGID....................       0
total # of *DEFORMABLE_TO_RIGID_AUTOMATIC..........       0
total # of *DEFORMABLE_TO_RIGID_INERTIA............       0
total # of *ELEMENT_BEAM_option....................       0
total # of *ELEMENT_BEAM_PULLEY....................       0
total # of *ELEMENT_BEAM_SOURCE....................       0
total # of *ELEMENT_DISCRETE.......................       0
total # of *ELEMENT_MASS...........................       0
total # of *ELEMENT_MASS_PART......................       0
total # of *ELEMENT_SEATBELT.......................       0
total # of *ELEMENT_SEATBELT_ACCELEROMETER.........       0
total # of *ELEMENT_SEATBELT_PRETENSIONER..........       0
total # of *ELEMENT_SEATBELT_RETRACTOR.............       0
total # of *ELEMENT_SEATBELT_SENSOR................       0
total # of *ELEMENT_SEATBELT_SLIPRING..............       0
total # of *ELEMENT_SHELL_option...................       0
total # of *ELEMENT_SHELL_NURBS_PATCH..............       0
total # of *ELEMENT_SOLID..........................    3089
total # of *ELEMENT_SOLID_NURBS_PATCH..............       0
total # of *ELEMENT_SPH............................       0
total # of *ELEMENT_TSHELL_option..................       0
total # of *ELEMENT_INERTIA........................       0
total # of *IGA_SHELL..............................       0
total # of *IGA_SOLID..............................       0
total # of *MODULE_LOAD............................       0
total # of *MODULE_USE.............................       0
total # of *SENSOR_SWITCH_SHELL_TO_VENT............       0
total # of *SENSOR_CPM_AIRBAG......................       0
total # of *PG_SWITCH_SHELL_TO_VENT................       0
total # of *EM_2DAXI...............................       0
total # of *EM_BOUNDARY............................       0
total # of *EM_BOUNDARY_PRESCRIBED.................       0
total # of *EM_CIRCUIT.............................       0
total # of *EM_CIRCUIT_CONNECT.....................       0
total # of *EM_CIRCUIT_ROGO........................       0
total # of *EM_CONTACT.............................       0
total # of *EM_CONTACT_RESISTANCE..................       0
total # of *EM_CONTACT_SUBDOM......................       0
total # of *EM_CONTROL.............................       0
total # of *EM_CONTROL_CONTACT.....................       0
total # of *EM_CONTROL_COUPLING....................       0
total # of *EM_CONTROL_D3PLOT......................       0
total # of *EM_CONTROL_EROSION.....................       0
total # of *EM_CONTROL_SOLUTION....................       0
total # of *EM_CONTROL_SWITCH......................       0
total # of *EM_CONTROL_SWITCH_CONTACT..............       0
total # of *EM_CONTROL_TIMESTEP....................       0
total # of *EM_DATABASE_CIRCUIT....................       0
total # of *EM_DATABASE_CIRCUIT0D..................       0
total # of *EM_DATABASE_ELOUT......................       0
total # of *EM_DATABASE_FIELDINE...................       0
total # of *EM_DATABASE_GLOBALENERGY...............       0
total # of *EM_DATABASE_NODOUT.....................       0
total # of *EM_DATABASE_PARTDATA...................       0
total # of *EM_DATABASE_POINTOUT...................       0
total # of *EM_DATABASE_ROGO.......................       0
total # of *EM_DATABASE_TIMESTEP...................       0
total # of *EM_EOS_BURGESS.........................       0
total # of *EM_EOS_MEADON..........................       0
total # of *EM_EOS_PERMEABILITY....................       0
total # of *EM_EOS_TABULATED1......................       0
total # of *EM_EOS_TABULATED2......................       0
total # of *EM_EXTERNAL_FIELD......................       0
total # of *EM_ISOPOTENTIAL........................       0
total # of *EM_ISOPOTENTIAL_CONNECT................       0
total # of *EM_ISOPOTENTIAL_ROGO...................       0
total # of *EM_MAT_001.............................       0
total # of *EM_MAT_002.............................       0
total # of *EM_MAT_003.............................       0
total # of *EM_MAT_004.............................       0
total # of *EM_MAT_005.............................       0
total # of *EM_MAT_006.............................       0
total # of *EM_POINT_SET...........................       0
total # of *EM_OUTPUT..............................       0
total # of *EM_RANDLES_BATMAC......................       0
total # of *EM_RANDLES_EXOTHERMIC_REACTION.........       0
total # of *EM_RANDLES_MESHLESS....................       0
total # of *EM_RANDLES_SHORT.......................       0
total # of *EM_RANDLES_SOLID.......................       0
total # of *EM_RANDLES_TSHELL......................       0
total # of *EM_ROTATION_AXIS.......................       0
total # of *EM_SOLVER_BEM..........................       0
total # of *EM_SOLVER_BEMMAT.......................       0
total # of *EM_SOLVER_FEM..........................       0
total # of *EM_SOLVER_FEMBEM.......................       0
total # of *EM_VOLTAGE_DROP........................       0
total # of *EOS_option.............................       2
total # of *FATIGUE................................       1
total # of *FATIGUE_FAILURE........................       0
total # of *FATIGUE_MULTIAXIAL.....................       0
total # of *FATIGUE_MEAN_STRESS_CORRECTION.........       0
total # of *FATIGUE_LOADSTEP.......................       0
total # of *FREQUENCY_DOMAIN_ACCELERATION_UNIT.....       0
total # of *FREQUENCY_DOMAIN_ACOUSTIC_BEM..........       0
total # of *FREQUENCY_DOMAIN_ACOUSTIC_FEM..........       0
total # of *FREQUENCY_DOMAIN_ACOUSTIC_FRINGE_PLOT..       0
total # of *FREQUENCY_DOMAIN_ACOUSTIC_INCIDENT_WAVE       0
total # of *FREQUENCY_DOMAIN_ACOUSTIC_SOUND_SPEED..       0
total # of *FREQUENCY_DOMAIN_FRF...................       0
total # of *FREQUENCY_DOMAIN_LOCAL.................       0
total # of *FREQUENCY_DOMAIN_MODE..................       0
total # of *FREQUENCY_DOMAIN_PATH..................       0
total # of *FREQUENCY_DOMAIN_RANDOM_VIBRATION......       0
total # of *FREQUENCY_DOMAIN_RESPONSE_SPECTRUM.....       0
total # of *FREQUENCY_DOMAIN_SEA...................       0
total # of *FREQUENCY_DOMAIN_SEA_CONNECTION........       0
total # of *FREQUENCY_DOMAIN_SEA_INPUTPOWER........       0
total # of *FREQUENCY_DOMAIN_SEA_SUBSYSTEM.........       0
total # of *FREQUENCY_DOMAIN_SSD...................       0
total # of *FV_MESHES..............................       0
total # of *FV_FSI.................................       0
total # of *HOURGLASS..............................       0
total # of *ICFD_BOUNDARY_CONJ_HEAT................       0
total # of *ICFD_BOUNDARY_CONVECTION_TEMP..........       0
total # of *ICFD_BOUNDARY_FLOWRATE.................       0
total # of *ICFD_BOUNDARY_FLUX_TEMP................       0
total # of *ICFD_BOUNDARY_FREESLIP.................       0
total # of *ICFD_BOUNDARY_FSI......................       0
total # of *ICFD_BOUNDARY_FSI_EXCLUDE..............       0
total # of *ICFD_BOUNDARY_FSWAVE...................       0
total # of *ICFD_BOUNDARY_GROUND...................       0
total # of *ICFD_BOUNDARY_NONSLIP..................       0
total # of *ICFD_BOUNDARY_OVERSET..................       0
total # of *ICFD_BOUNDARY_PERIODIC.................       0
total # of *ICFD_BOUNDARY_PRESCRIBED_MOVEMESH......       0
total # of *ICFD_BOUNDARY_PRESCRIBED_POTENTIAL.....       0
total # of *ICFD_BOUNDARY_PRESCRIBED_PRE...........       0
total # of *ICFD_BOUNDARY_PRESCRIBED_TEMP..........       0
total # of *ICFD_BOUNDARY_PRESCRIBED_TURBULENCE....       0
total # of *ICFD_BOUNDARY_PRESCRIBED_VEL...........       0
total # of *ICFD_BOUNDARY_RADIATION_TEMP...........       0
total # of *ICFD_BOUNDARY_RESISTANCE...............       0
total # of *ICFD_BOUNDARY_WINDKESSEL...............       0
total # of *ICFD_CONTROL_ADAPT.....................       0
total # of *ICFD_CONTROL_ADAPT_SIZE................       0
total # of *ICFD_CONTROL_ADVECTION.................       0
total # of *ICFD_CONTROL_CONJ......................       0
total # of *ICFD_CONTROL_CONVERGENCE...............       0
total # of *ICFD_CONTROL_DEM_COUPLING..............       0
total # of *ICFD_CONTROL_EMBEDSHELL................       0
total # of *ICFD_CONTROL_FSI.......................       0
total # of *ICFD_CONTROL_FREESURF..................       0
total # of *ICFD_CONTROL_GENERAL...................       0
total # of *ICFD_CONTROL_IMMERSED..................       0
total # of *ICFD_CONTROL_IMPOSED_MOVE..............       0
total # of *ICFD_CONTROL_LOAD......................       0
total # of *ICFD_CONTROL_MEMCHECK..................       0
total # of *ICFD_CONTROL_MESH......................       0
total # of *ICFD_CONTROL_MESH_MOV..................       0
total # of *ICFD_CONTROL_OUTPUT....................       0
total # of *ICFD_CONTROL_OUTPUT_SUBDOM.............       0
total # of *ICFD_CONTROL_OUTPUT_VAR................       0
total # of *ICFD_CONTROL_PARTITION.................       0
total # of *ICFD_CONTROL_PERIODIC..................       0
total # of *ICFD_CONTROL_POROUS....................       0
total # of *ICFD_CONTROL_RANS......................       0
total # of *ICFD_CONTROL_REDUCED...................       0
total # of *ICFD_CONTROL_STEADY....................       0
total # of *ICFD_CONTROL_SURFMESH..................       0
total # of *ICFD_CONTROL_TAVERAGE..................       0
total # of *ICFD_CONTROL_TIME......................       0
total # of *ICFD_CONTROL_TRANSIENT.................       0
total # of *ICFD_CONTROL_TURBULENCE................       0
total # of *ICFD_CONTROL_TURB_SYNTHESIS............       0
total # of *ICFD_DATABASE_AVERAGE..................       0
total # of *ICFD_DATABASE_DRAG.....................       0
total # of *ICFD_DATABASE_FLUX.....................       0
total # of *ICFD_DATABASE_HTC......................       0
total # of *ICFD_DATABASE_NODEAVG..................       0
total # of *ICFD_DATABASE_NODOUT...................       0
total # of *ICFD_DATABASE_POINTAVG.................       0
total # of *ICFD_DATABASE_POINTOUT.................       0
total # of *ICFD_DATABASE_RESIDUALS................       0
total # of *ICFD_DATABASE_TEMP.....................       0
total # of *ICFD_DATABASE_TIMESTEP.................       0
total # of *ICFD_DATABASE_UINDEX...................       0
total # of *ICFD_DEFINE_HEATSOURCE.................       0
total # of *ICFD_DEFINE_NONINERTIAL................       0
total # of *ICFD_DEFINE_POINT......................       0
total # of *ICFD_DEFINE_SOURCE.....................       0
total # of *ICFD_DEFINE_TURBSOURCE.................       0
total # of *ICFD_DEFINE_WAVE_DAMPING...............       0
total # of *ICFD_INITIAL...........................       0
total # of *ICFD_INITIAL_LEVELSET..................       0
total # of *ICFD_INITIAL_TURBULENCE................       0
total # of *ICFD_MAT...............................       0
total # of *ICFD_MODEL_ELECTROSTATIC...............       0
total # of *ICFD_MODEL_NONNEWT.....................       0
total # of *ICFD_MODEL_POROUS......................       0
total # of *ICFD_PART..............................       0
total # of *ICFD_PART_VOL..........................       0
total # of *ICFD_SECTION...........................       0
total # of *ICFD_SET_NODE..........................       0
total # of *ICFD_SOLVER_SPLIT......................       0
total # of *ICFD_SOLVER_TOL_FSI....................       0
total # of *ICFD_SOLVER_TOL_LSET...................       0
total # of *ICFD_SOLVER_TOL_MMOV...................       0
total # of *ICFD_SOLVER_TOL_MOM....................       0
total # of *ICFD_SOLVER_TOL_MONOLITHIC.............       0
total # of *ICFD_SOLVER_TOL_PRE....................       0
total # of *ICFD_SOLVER_TOL_TEMP...................       0
total # of *ICFD_SOLVER_TOL_TURBULENCE.............       0
total # of *INITIAL_AIRBAG_PARTICLE_POSITION.......       0
total # of *INITIAL_AXIAL_FORCE_BEAM...............       0
total # of *INITIAL_CRASHFRONT.....................       0
total # of *INITIAL_DETONATION.....................       0
total # of *INITIAL_FATIGUE_DAMAGE_RATIO...........       0
total # of *INITIAL_FIELD_SOLID....................       0
total # of *INITIAL_IMPULSE_MINE...................       0
total # of *INITIAL_MOMENTUM.......................       0
total # of *INITIAL_PWP_DEPTH .....................       0
total # of *INITIAL_STRAIN_SHELL...................       0
total # of *INITIAL_STRAIN_SHELL_SET...............       0
total # of *INITIAL_STRAIN_SHELL_NURBS_PATCH.......       0
total # of *INITIAL_STRAIN_SOLID...................       0
total # of *INITIAL_STRAIN_SOLID_NURBS_PATCH.......       0
total # of *INITIAL_STRAIN_TSHELL..................       0
total # of *INITIAL_STRESS_BEAM....................       0
total # of *INITIAL_STRESS_DEPTH ..................       0
total # of *INITIAL_STRESS_SECTION.................       0
total # of *INITIAL_STRESS_SHELL...................       0
total # of *INITIAL_STRESS_SHELL_SET...............       0
total # of *INITIAL_STRESS_SHELL_NURBS_PATCH.......       0
total # of *INITIAL_STRESS_SOLID...................       0
total # of *INITIAL_STRESS_SOLID_SET...............       0
total # of *INITIAL_STRESS_SOLID_NURBS_PATCH.......       0
total # of *INITIAL_STRESS_SPH.....................       0
total # of *INITIAL_STRESS_TSHELL..................       0
total # of *INITIAL_STRESS_DES.....................       0
total # of *INITIAL_HISTORY_NODE...................       0
total # of *INITIAL_HISTORY_NODE_SET...............       0
total # of *INITIAL_TEMPERATURE_SET................       0
total # of *INITIAL_TEMPERATURE_NODE...............       0
total # of *INITIAL_VELOCITY.......................       0
total # of *INITIAL_VELOCITY_NODE..................       0
total # of *INITIAL_VELOCITY_RIGID_BODY............       0
total # of *INITIAL_VOID_PART......................       0
total # of *INITIAL_VOID_SET.......................       0
total # of *INITIAL_VOLUME_FRACTION_GEOMETRY.......       0
total # of *INITIAL_HYDROSTATIC_ALE................       0
total # of *INITIAL_EOS_ALE........................       0
total # of *INITIAL_VAPOR_PART.....................       0
total # of *INITIAL_ALE_MAPPING....................       0
total # of *INITIAL_LAG_MAPPING....................       0
total # of *INITIAL_SOLID_VOLUME...................       0
total # of *INTEGRATION_BEAM.......................       0
total # of *INTEGRATION_SHELL......................       0
total # of *INTERFACE_COMPONENT_option.............       0
total # of *INTERFACE_DE_HBOND.....................       0
total # of *INTERFACE_LINKING_DISCRETE_NODE........       0
total # of *INTERFACE_LINKING_DISCRETE_NODE_SET....       0
total # of *INTERFACE_LINKING_EDGE.................       0
total # of *INTERFACE_LINKING_SEGMENT..............       0
total # of *INTERFACE_SPRINGBACK...................       0
total # of *INTERFACE_SSI_AUXILIARY_FREE_FIELD.....       0
total # of *INTERFACE_SSI_STATIC...................       0
total # of *INTERFACE_SSI..........................       0
total # of *LOAD_ACOUSTIC_SOURCE...................       0
total # of *LOAD_ALE_CONVECTION ...................       0
total # of *LOAD_AIR_PRESSURE......................       0
total # of *LOAD_BEAM..............................       0
total # of *LOAD_BEAM_SET..........................       0
total # of *LOAD_BODY_GENERALIZED..................       0
total # of *LOAD_BODY_POROUS.......................       0
total # of *LOAD_BODY_RX...........................       0
total # of *LOAD_BODY_RY...........................       0
total # of *LOAD_BODY_RZ...........................       0
total # of *LOAD_BODY_X............................       0
total # of *LOAD_BODY_Y............................       0
total # of *LOAD_BODY_Z............................       0
total # of *LOAD_BRODE.............................       0
total # of *LOAD_BLAST.............................       0
total # of *LOAD_BLAST_CLEARING....................       0
total # of *LOAD_BLAST_ENHANCED....................       0
total # of *LOAD_BLAST_SEGMENT.....................       0
total # of *LOAD_BLAST_SEGMENT_SET.................       0
total # of *LOAD_DENSITY_DEPTH ....................       0
total # of *LOAD_GRAVITY_PART .....................       0
total # of *LOAD_HEAT_CONTROLLER ..................       0
total # of *LOAD_HEAT_GENERATION_SET...............       0
total # of *LOAD_HEAT_GENERATION_SOLID.............       0
total # of *LOAD_HEAT_GENERATION_SET_SHELL.........       0
total # of *LOAD_HEAT_GENERATION_SHELL.............       0
total # of *LOAD_MOVING_PRESSURE...................       0
total # of *LOAD_NODE..............................       0
total # of *LOAD_NODE_SET..........................       0
total # of *LOAD_NSG...............................       0
total # of *LOAD_PYRO_ACTUATOR.....................       0
total # of *LOAD_REMOVE_PART ......................       0
total # of *LOAD_SEGMENT...........................       0
total # of *LOAD_SEGMENT_FSILNK....................       0
total # of *LOAD_SEGMENT_NONUNIFORM................       0
total # of *LOAD_SEGMENT_SET.......................       0
total # of *LOAD_SEGMENT_SET_NONUNIFORM............       0
total # of *LOAD_SEISMIC_SSI_NODE..................       0
total # of *LOAD_SEISMIC_SSI_SET...................       0
total # of *LOAD_SEISMIC_SSI_POINT.................       0
total # of *LOAD_SEISMIC_SSI_DECONV................       0
total # of *LOAD_SHELL.............................       0
total # of *LOAD_SHELL_SET.........................       0
total # of *LOAD_STIFFEN_PART .....................       0
total # of *LOAD_SUPERPLASTIC_FORMING..............       0
total # of *LOAD_SURFACE_STRESS....................       0
total # of *LOAD_THERMAL_option_ELEMENT............       0
total # of *LOAD_THERMAL_option_NODE...............       0
total # of *LOAD_THERMAL_option....................       0
total # of *LOAD_THERMAL_LOAD_CURVE................       0
total # of *LOAD_THERMAL_TOPAZ ....................       0
total # of *LOAD_THERMAL_VARIABLE_SHELL_option.....       0
total # of *LOAD_THERMAL_VARIABLE_BEAM _option.....       0
total # of *LOAD_VIBRO_ACOUSTIC....................       0
total # of *LOAD_VOLUME_LOSS ......................       0
total # of *LSO_DOMAIN.............................       0
total # of *LSO_ID_SET.............................       0
total # of *LSO_POINT_SET..........................       0
total # of *LSO_REGION.............................       0
total # of *LSO_TIME_SEQUENCE......................       0
total # of *LSO_VARIABLE_GROUP.....................       0
total # of *MAT_option.............................       2
total # of *MAT_THERMAL_option.....................       0
total # of *MAT_NONLOCAL...........................       0
total # of *MESH_BL................................       0
total # of *MESH_BL_SYM............................       0
total # of *MESH_EMBEDSHELL........................       0
total # of *MESH_EMBEDSHELL........................       0
total # of *MESH_IMM_ELEMENT.......................       0
total # of *MESH_IMM_NODE..........................       0
total # of *MESH_SIZE..............................       0
total # of *MESH_SIZE_SHAPE........................       0
total # of *MESH_SURFACE_ELEMENT...................       0
total # of *MESH_SURFACE_NODE......................       0
total # of *MESH_VOLUME............................       0
total # of *MESH_VOLUME_ELEMENT....................       0
total # of *MESH_VOLUME_NODE.......................       0
total # of *MESH_VOLUME_PART.......................       0
total # of *NODE...................................    6742
total # of *NODE_MERGE.............................       0
total # of *NODE_MERGE_TOLERANCE...................       0
total # of *PART_option card.......................       6
total # of *PART_ANNEAL_option.....................       0
total # of *PARTICLE_GENERAL.......................       0
total # of *RIGIDWALL_option.......................       0
total # of *SECTION_option.........................       2
total # of *SENSOR_CONTROL.........................       0
total # of *SENSOR_DEFINE .........................       0
total # of *SENSOR_SWITCH .........................       0
total # of *SET_2D_SEGMENT.........................       0
total # of *SET_BEAM...............................       0
total # of *SET_BOX ...............................       0
total # of *SET_DISCRETE...........................       0
total # of *SET_MODE...............................       0
total # of *SET_NODE_option........................       3
total # of *SET_PART...............................       1
total # of *SET_POINT..............................       0
total # of *SET_SEGMENT............................       0
total # of *SET_SHELL_option.......................       0
total # of *SET_SOLID..............................       0
total # of *SET_TSHELL.............................       0
total # of *STOCHASTIC_SPRAY_PARTICLES.............       0
total # of *STOCHASTIC_TBX_PARTICLES...............       0
total # of *TERMINATION_BODY.......................       0
total # of *TERMINATION_DELETED_SHELLS.............       0
total # of *TERMINATION_DELETED_SOLIDS.............       0
total # of *TERMINATION_NODE.......................       0
total # of *TERMINATION_CONTACT....................       0
total # of *TITLE..................................       1
total # of *USER_INTERFACE_CONTROL.................       0
total # of *USER_INTERFACE_FRICTION................       0
total # of *USER_INTERFACE_FORCES..................       0
total # of *USER_INTERFACE_CONDUCTIVITY............       0
total # of *USER_LOAD..............................       0
total # of *USER_MATERIAL_VENDOR...................       0
total # of *USER_MATERIAL_LICENSE..................       0
total # of *USER_NONLOCAL_SEARCH...................       0
total # of *USER_PARAMETER.........................       0
total # of *CHANGE_BOUNDARY_CONDITIONS.............       0
total # of *CHANGE_CONTACT_SMALL_PENETRATION.......       0
total # of *CHANGE_RIGID_BODY_CONSTRAINTS..........       0
total # of *CHANGE_RIGID_BODY_INERTIA..............       0
total # of *CHANGE_THERMAL_PARAMETERS..............       0
total # of *CHANGE_VELOCITY_ZERO...................       0
total # of *CHANGE_VELOCITY_RIGID_BODY.............       0
total # of *DELETE_ALECPL..........................       0
total # of *DELETE_CONTACT.........................       0
total # of *DELETE_CONTACT_2DAUTO..................       0
total # of *DELETE_FSI.............................       0
total # of *DELETE_ENTITY..........................       0
total # of *DELETE_ELEMENT_SOLID...................       0
total # of *DELETE_ELEMENT_BEAM....................       0
total # of *DELETE_ELEMENT_SHELL...................       0
total # of *DELETE_ELEMENT_TSHELL..................       0
total # of *DELETE_PART............................       0
total # of *RIGID_DEFORMABLE_CONTROL...............       0
total # of *RIGID_DEFORMABLE_D2R...................       0
total # of *RIGID_DEFORMABLE_R2D...................       0
total # of *STRESS_INITIALIZATION..................       0

Values of encrypted parameters, if any, have been suppressed

 Memory required to process keyword     :     845267  
 Additional dynamic memory required     :    2152914  


 MPP execution with       4 procs

 LS-DYNA will perform a structural only analysis 



 LS-DYNA keyword deck by LS-PrePost                                      
            code input version =1993
            formats            =mlarg



 c o n t r o l   i n f o r m a t i o n

    CONTROL CARD 1. Model Size-General

    number of materials or property sets...........       6

    number of nodal+scalar points..................    9831

    number of merged nodal points..................       0

    number of solid elements.......................    3089

    number of beam elements........................       0

    number of shell elements.......................       0

    number of thick shell elements.................       0

    number of user defined material subroutines....       1

    number of material groups tied to solids.......       0

    number of tracer particles.....................       0

    number of super elements.......................       0

    number of solid tetrahedrons with 10 nodes.....       0

    number of quadratic shell elements.............       0

    number of shells with extra degrees of freedom.       0

    number of solids with extra degrees of freedom.       0

    number of user defined sections................       0

    activate sensor capability (inactive=0)........       0

    number of user defined solid element types.....       0

    number of solid interpolation elements.........       0

    number of user defined shell element types.....       0

    number of shell interpolation elements.........       0

    number of constrained nodes for interpolation..       0

    consistent mass matrix for user-def elements...       0

    number of shell nurbs patches..................       0

    number of solid nurbs patches..................       0

    number of tree branches........................       0


    CONTROL CARD 2. Model Size-Boundary Conditions

    number of spc nodes............................    6742

    number of spc coordinates......................       0

    number of velocity cards.......................       0

    number of non-reflecting boundary segments.....       0

    number of b. c. cards..........................       0

    number of b. c. cards with failure.............       0

    number of box definition for b. c. card........       0

    number of nodes/interface for cyclic symmetry..       0

    number of rigid bodies with attachment nodes...       0


    CONTROL CARD 3. Model Size-Loading

    number of load curves..........................       0

    number of nodes for load curve functions.......       0

    number of curves for entities..................       0

    number of concentrated load cards..............       0

    number of pressure load cards..................       0

    number of expansion pressure load cards........       0

    number of nonuniform pressure loads-4 nodes....       0

    number of nonuniform pressure loads-6 nodes....       0

    number of nonuniform pressure loads-8 nodes....       0

    number of generalized body force sets..........       0

    number of beam pressure card definitions.......       0

    number of detonation points....................       0

    number of zones for momentum deposition........       0

    number of points in density vs. depth curve....       0

    number of outflow boundary segments............       0

    number of load curve feedback sets.............       0

    number of pressure load sets with masks........       0

    number of spray systems .......................       0

    number of initial stress by cross-sections sets       0

    number of pressure load sets...................       0

    number of ground motion definitions............       0

    number of ground motions specified at nodes....       0

    number of ground motions specified at points...       0

    number of ground motions specified in bin file.       0

    number of segsets with specified ground motion.       0

    number of soil-structure interfaces for output.       0

    number of aero-acoustic load cards.............       0

    number of delayed curve........................       0

    number of pid controller.......................       0


    CONTROL CARD 4. Model Size-Constraints and Contact

    number of rigid wall definitions...............       0

    number of number of contact definitions........       2

    number of number of guided cable contacts......       0

    number of shell-solid interfaces...............       0

    number of tie-breaking slide lines.............       0

    number of blocks of tied nodes with fracture ..       0

    number of tied nodal pairs for linking.........       0

    number of constraint cards.....................       0

    number of linear constraint equations..........       0

    number of 1d slidelines........................       0

    number of adaptive constraints.................       0

    number of ALE smoothing constraints............       0

    number of 2d slidelines........................       0

    number of 2d automatic contacts................       0

    number of part IDs for interior contact........       0

    number of beam release sets....................       0

    max. number of nodes in any beam release set...       0


    CONTROL CARD 5. Model Size-Rigid Body Parameters

    number of rigid body constraint sets...........       0

    number of rigid body merge cards...............       0

    number of joint constraints....................       0

    number of joint failure definitions............       0

    number of joint user force definitions.........       0

    number of extra node blocks....................       0

    number of rigid body inertia definitions.......       0

    number of geometric contact entities...........       0

    number of joint stiffness definitions..........       0

    number of rigid body stoppers..................       0

    joint formulation for rigid bodies.............       0
          eq.0:  penalty                                 
          eq.1:  lagrange multiplier                     

    generalized stiffness angle update ............       0
          eq.0:  incremental formulation                 
          eq.1:  total formulation                       

    number of flexible bodies......................       0
          lt.0:  stress recovery active                  

    number of relative damping definitions.........       0

    flag for reading rigid surface contact input...       0
          eq.0:  no rigid surface contact                 
          eq.1:  read rigid surface input                

    number of Hybrid III dummies ..................       0

    number of Hybrid III joint modifications ......       0

    number of interpolation constraints ...........       0

    flag for metalforming fast rigid bodies........       0
          eq.0:  full rigid body treatment               
          eq.1:  fast rigid body treatment               

    number of prescribed rigid body orientations          0


    CONTROL CARD 6. Model Size-Discrete Elements & Seat Belts

    number of spring-damper material types.........       0

    number of local coordinate systems.............       0

    number of discrete springs and dampers.........       0

    number of lumped masses........................       0

    number of parts with added mass................       0

    number of nodes with mass matrix...............       0

    number of seat belt materials..................       0

    number of seat belt elements...................       0

    number of 2d seat belt elements................       0

    number of slip rings...........................       0

    number of retractors...........................       0

    number of sensors..............................       0

    number of pretensioners........................       0

    number of accelerometers.......................       0

    number of discrete rotary inertias.............       0

    number of SPH particles........................       0

    number of groups of SPH particles..............       0


    CONTROL CARD 7. Model Size-Output Control

    number of cross section definitions............       0

    number of nodal groups for resultant forces....       0

    number of interface segments for linking.......       0

    max. number of segments defining rigid wall....       0

    number of power spectrum density databases.....       0


    CONTROL CARD 8. Computation Options-Termination

    termination time...............................    0.2200E-04

    termination cycle..............................       0

    reduction factor for minimum time step (TSMIN).    0.0000E+00

    percent change in energy ratio for termination.    0.0000E+00

    percent change in total mass for termination...    0.1000E+09

    number of nodes for displacement termination...       0

    number of rigid bodies for disp. termination...       0

    number of conditions for contact termination...       0

    number of conditions for ldcurve termination...       0

    ID of sensor_switch  for sensor  termination... 0


    CONTROL CARD 8a. Computation Options-Start      

    start time.....................................    0.0000E+00


    CONTROL CARD 9. Computation Options-Time Step Size 

    initial time step size.........................    0.0000E+00

    time step scale factor.........................    0.1000E+00

    time step size calculation for 4-node shells...       0
          eq.0:  based on longest element side          
          eq.1:  based on longest element diagonal      
          eq.2:  based on bar wave speed max side       
          eq.3:  based on optimal time step size        
                 estimator                              

    shell element minimum time step assignment.....    0.0000E+00

    time step size for mass scaled solution, dt2ms.    0.0000E+00
          lt.0:  minimum time step size permitted       

    load curve number for maximum timestep.........       0

    erosion/termination flag for element dt < TSMIN       0
        beam elements..............................    not active
        shell elements.............................    not active
        solid and tshell elements..................    not active

    solid element time step calculation option, IHDO      0
          eq.0:  default method
          eq.1:  method to improve time step continuity

    option part set ID for eroding solids..........       0
          eq.0:  all solids and thick shells are checked
                 if ERODE=1 and TSMIN>0 or if TSMIN<0
          gt.0:  solids within part set are checked      

    limit mass scaling to the first time step......       0
          eq.0:  no                                      
          eq.1:  yes                                     

    scale factor on initial dt to determine dt2ms..    0.0000E+00

    load curve ID for mass scaling ................       0

    flag for selective mass scaling................       0
          eq.0:  off                                     
          eq.1:  on                                      
          eq.2:  on for part subset                      

    consistent constraint logical switch...........       F

    flag for part set for erosion .................       0
          eq.0:  no                                      
          eq.1:  yes                                     

    flag for accounting for rotations in sms.......    0.0000E+00
          eq.0.:  off (default)                           
          gt.0.:  on                                      
    implicit_explicit_hybrid part set..............       0



    CONTROL CARD 10. Computation Options-Loading

    x-ground acceleration..........................       0
          eq.0:  no                                      
          eq.1:  yes                                     

    y-ground acceleration..........................       0
          eq.0:  no                                      
          eq.1:  yes                                     

    z-ground acceleration..........................       0
          eq.0:  no                                      
          eq.1:  yes                                     

    x-angular velocity.............................       0
          eq.0:  no                                      
          eq.1:  yes                                     

    y-angular velocity.............................       0
          eq.0:  no                                      
          eq.1:  yes                                     

    z-angular velocity.............................       0
          eq.0:  no                                      
          eq.1:  yes                                     

    number of materials receiving body forces......       0
          eq.0:  all                                     
          eq.n:  subset of n materials                   

    flag for user defined loading subroutine.......       0
          lt.0:  magnitude=# of input constants          
          eq.0:  no                                      
          eq.1:  yes, but no additional input            

    explosive initiation option....................       0
          eq.0:  lighting times based on distance        
          eq.1:  lighting times include geometric        
                 effects for wave shapers, etc.          

    sub-sea structural analysis option.............       0
          eq.0:  off                                     
          eq.1:  on with 1 point integration             
          eq.4:  on with 4 point integration             
    contact pressure calculation option............       0
          eq.0:  off (default)                           
          eq.1:  on                                      
    # of user defined loading set..................       0


    CONTROL CARD 11. Computation Options-Input Control

    initialization of velocities...................       6
          eq.0: velocities are initialized to zero       
          eq.1: initial velocities are read in           
          eq.2: all velocities have same input value     
          eq.3: as 2 but exempted nodes are defined      
          eq.4: box option                               
          eq.5: generation with arbitrary numbering      
          eq.6: rotational and translational via IDs     
          eq.7: option 6 but applied during calculation  

    time to apply initial velocites (option 7).....    0.0000E+00

    arbitrary node and element numbering flag .....       1

    constitute, eqs-of-state, cross-section option.       0
          eq.0:  off                                     
          eq.1:  separate input is required for each     

    specified nodal coordinate format..............    e20.0

    flag for thermodynamic control volume input....       0

    overpressure option (eq.0 no,  eq.1 yes).......       0

    number of part (de) activation sensors.........       0

    number of rigid body initial velocity sets.....       0

    jacobian tolerance for type 16 tetrahedron.....    0.0000E+00

    flag to check for NaN in force/moment arrays...       0

    load curve accuracy flag.......................       1

    cycles between evaluation of curve functions...       1


    CONTROL CARD 12. Computation Options-Elements  

    warped shell angle in deg. for error message...    0.2000E+02

    iterative plane stress plasticity for shells...       1
          eq.1:  vectorized with three iterates         
          eq.2:  nonvectorized iterations as needed     
          eq.3:  noniterative radial return             

    Calculation option for F for solid elements....       0
          eq.0:  default, explicit=1, implicit=2        
          eq.1:  integrate incrementally                
          eq.2:  compute directly                       

    flag for automatic sorting ....................      10
          eq. 1:  on for triangular shells              
          eq.11:  on for triangular shells and solids   
          eq.10:  on for solids (tets and pentas)       

    formulation for sorted degenerate tet/pent.....       1
          eq. 0:  no sorting required(default)           
          eq. 1:  type 10 tet & type 15 pent             
          eq. 2:  type 10 tet, 1pt pent to type 15 pent, 
                  fully intg pent to type 115 pent       
          eq. 3:  same as 1 & switch elem in messag file 
          eq. 4:  same as 2 & switch elem in messag file 

    formulation for sorted trianglar shells .......       0
          eq. 0:  no sorting required(default)           
          eq. 1:  C0 triangle, type  4                   
          eq. 2:  DKT triangle type 17                   

    hughes-liu normal computation options..........      -1
          eq.-2: unique nodal fibers                    
          eq.-1: compute normals each cycle
          eq.0 : default set to -1     
          eq.1 : compute on restart
          eq.n : compute on restart + each nth cycle     

    consistent tangent for type 13 solid...........       0
          eq.0 : no, recommended for nonlinear implicit 
          eq.1 : yes, may improve linear response       

    choice of type 13 solid implementation.........       0
          eq.0 : efficient version (default)            
          eq.1 : slower but more accurate version       

    thickness modification for membrane strains....       0
          eq.0:  no                                     
          eq.1:  4-node shell only                      
          eq.2:  8-node thick shell types 1 & 2         
          eq.3:  update both 4 & 8 node thickness       
          eq.4:  same as option 1 but the elastic       
                 strains are neglected                  

    shell part set ID (pids) for thickness update.  0
          lt.0: exclude pids if update option is active  
          eq.0: include  all if update option is active  
          gt.0: include pids if update option is active  

    shell part set ID where type 4 update applies   0

    shell formulation basis........................ 2
          eq.   1: hughes-liu                            
          eq.   2: belytschko-tsay                       
          eq.   3: bciz                                  
          eq.   4: c0-triangular element                 
          eq.   5: membrane element                      
          eq.   6: s/r hughes-liu                        
          eq.   7: s/r co-rotational hughes-liu          
          eq.   8: belytschko-leviathan shell            
          eq.   9: fully integrated membrane             
          eq.  10: belytschko-wong-chiang                
          eq.  11: fast hughes-liu                       
          eq.  12: 2d plane stress                       
          eq.  13: 2d plane strain                       
          eq.  14: 2d axisymmetric  (area wgt)           
          eq.  15: 2d axisymmetric  (volume wgt)         
          eq.  16: fully integrated element              
          eq.  17: dkt element                           
          eq.  18: dkq-dkt linear element                
          eq.  20: assumed strain linear element         
          eq.  21: assumed strain linear element(5DOF)   
          eq.  22: linear shear panel element(3DOF)      
          eq.  23: 8-node quadratic quadrilateral shell  
          eq.  24: 6-node quadratic triangular shell     
          eq.  25: belytschko-tsay with                  
                   thickness stretch                     
          eq.  26: fully integrated element with         
                   thickness stretch                     
          eq.  27: c0-triangular element with            
                   thickness stretch                     
          eq.  29: cohesive element for shell            
                   edge-to-edge connections              
          eq. -29: cohesive element with midlayer        
                   coordinate system for pure shear      
          eq.  31: 2-d 1-pt. eulerian n-s                
          eq.  32: 2-d 4-pt. eulerian n-s                
          eq.  33: 2-d cvfem eulerian n-s                
          eq.  41: meshfree shell local projection       
          eq.  42: meshfree shell global projection      
          eq.  43: meshfree plane strain                 
          eq.  44: meshfree axisymmetric solid           
          eq.  46: cohesive element compatible with 2d   
                   plane stress, plane strain, or        
                   area-weighted axisymmetric elements   
          eq.  47: cohesive element compatible with 2d   
                   volume-weighted axisymmetric elements 
          eq.  98: interpolation shell element           
          eq.  99: elastic vibration element             
          eq. 201: isogeometric nurbs element            
          ge.1000: user defined (generalized) shell      

    # of user specified beam integration rules.....       0
    max number of integration points reqd (beams) .       0
    # of user specified shell integration rules....       0
    max number of integration points reqd (shells).       0
    warping stiffness for Belytschko-Tsay shells...       2
          eq.1:  Belytschko-Wong-Chiang modification    
          eq.2:  original Belytschko-Tsay               

    projection method for warping stiffness........       0
          eq.0:  drill                                   
          eq.1:  full                                    

    reference configuration .......................       0
          eq. 0:  no                                      
          eq. 1:  yes, active for all airbags             
          eq. 2:  yes, reference geometry Dt              
          eq.10:  yes, active for foam elements           
          eq.11:  options 1 and 10 active                 
          eq.12:  options 2 and 10 active                 

    contact reference configuration ...............       0
          eq. 0:  no                                      
          eq. n:  n number of reference nodes             

    invariant node numbering ......................       4
          eq.-4  on for both shell and solid elements   
                 except triangular shells               
          eq.-2  on for shell elements except           
                 triangular shells                      
          eq. 1  off (default)                          
          eq. 2  on for all shell elements              
          eq. 3  on for solid elements with             
                 anisotropic material                   
          eq. 4  on for all shell elements and solid    
                 elements with anisotropic material     

    activation time for reference geometry ........    0.0000E+00

    scale factor for shell rotary mass ............    0.1000E+01
    scale factor for shell rotary added mass ......    0.1000E+01

    integration for shell through thickness .......       0
          eq.0:  Gauss                                   
          eq.1:  Lobatto                                 

    use laminated shell theory for material .......       0
    types 22, 54, 55, and 76:                      
          eq.0:  no                                      
          eq.1:  yes for thin shell material types       
                 22, 54, 55, or 76                       
          eq.3:  yes for all thin shell anisotropic      
                 materials or mixed materials            
          eq.4:  yes for all thick shell anisotropic     
                 materials or mixed materials            
          eq.5:  yes for thick and thin shells           

    number of annealed parts .......................       0

    number of new part IDs for COMPOSITE option.....       0

    flag for shell offset vectors .................       0
          eq. 0:  off                                   
          eq. 1:  on                                    

    flag for offset shell contact surface .........       0
          eq. 0:  off                                   
          eq. 1:  on                                    
          eq. 2:  on, but use contact thickness         

    number of point constraints between shells ....       0

    flag for input of beam orientation vectors ....       0

    flag for input of beam offset vectors .........       0

    flag for input of beam warpage scalar nodes....       0

    flag for 12-node shell for thermal ............       0

    local shell coordinate system in type 6 shell..       1
          eq. 0:  uniform local coordinate system       
          eq. 1:  variable local coordinate system      

    Jacobian check on 1 point shells...............       0
          eq. 0:  off                                   
          eq. 1:  on -delete distorted element          
[...]
       660       698       514       507  
         0         0         0         0  
         0         0         0         0  
         0         0         0         0  

      total number of failed solid  elements =    2379
      total number of failed beam   elements =       0
      total number of failed shell  elements =       0
      total number of failed tshell elements =       0

 S u m m a r y   F r o m   A l l  P r o c e s s o r s
 f a i l e d   e l e m e n t   r e p o r t  time= 1.72199E-05

 CPU     0 CPU     1 CPU     2 CPU     3                                        
 --------- --------- --------- ---------                                        
       660       698       515       507  
         0         0         0         0  
         0         0         0         0  
         0         0         0         0  

      total number of failed solid  elements =    2380
      total number of failed beam   elements =       0
      total number of failed shell  elements =       0
      total number of failed tshell elements =       0

 S u m m a r y   F r o m   A l l  P r o c e s s o r s
 f a i l e d   e l e m e n t   r e p o r t  time= 1.72325E-05

 CPU     0 CPU     1 CPU     2 CPU     3                                        
 --------- --------- --------- ---------                                        
       660       698       515       508  
         0         0         0         0  
         0         0         0         0  
         0         0         0         0  

      total number of failed solid  elements =    2381
      total number of failed beam   elements =       0
      total number of failed shell  elements =       0
      total number of failed tshell elements =       0

 S u m m a r y   F r o m   A l l  P r o c e s s o r s
 f a i l e d   e l e m e n t   r e p o r t  time= 1.72546E-05

 CPU     0 CPU     1 CPU     2 CPU     3                                        
 --------- --------- --------- ---------                                        
       660       698       515       509  
         0         0         0         0  
         0         0         0         0  
         0         0         0         0  

      total number of failed solid  elements =    2382
      total number of failed beam   elements =       0
      total number of failed shell  elements =       0
      total number of failed tshell elements =       0

 S u m m a r y   F r o m   A l l  P r o c e s s o r s
 f a i l e d   e l e m e n t   r e p o r t  time= 1.72766E-05

 CPU     0 CPU     1 CPU     2 CPU     3                                        
 --------- --------- --------- ---------                                        
       660       698       516       509  
         0         0         0         0  
         0         0         0         0  
         0         0         0         0  

      total number of failed solid  elements =    2383
      total number of failed beam   elements =       0
      total number of failed shell  elements =       0
      total number of failed tshell elements =       0

 S u m m a r y   F r o m   A l l  P r o c e s s o r s
 f a i l e d   e l e m e n t   r e p o r t  time= 1.72939E-05

 CPU     0 CPU     1 CPU     2 CPU     3                                        
 --------- --------- --------- ---------                                        
       660       698       516       510  
         0         0         0         0  
         0         0         0         0  
         0         0         0         0  

      total number of failed solid  elements =    2384
      total number of failed beam   elements =       0
      total number of failed shell  elements =       0
      total number of failed tshell elements =       0

 S u m m a r y   F r o m   A l l  P r o c e s s o r s
 f a i l e d   e l e m e n t   r e p o r t  time= 1.73191E-05

 CPU     0 CPU     1 CPU     2 CPU     3                                        
 --------- --------- --------- ---------                                        
       660       698       517       510  
         0         0         0         0  
         0         0         0         0  
         0         0         0         0  

      total number of failed solid  elements =    2385
      total number of failed beam   elements =       0
      total number of failed shell  elements =       0
      total number of failed tshell elements =       0

 S u m m a r y   F r o m   A l l  P r o c e s s o r s
 f a i l e d   e l e m e n t   r e p o r t  time= 1.73265E-05

 CPU     0 CPU     1 CPU     2 CPU     3                                        
 --------- --------- --------- ---------                                        
       660       698       518       511  
         0         0         0         0  
         0         0         0         0  
         0         0         0         0  

      total number of failed solid  elements =    2387
      total number of failed beam   elements =       0
      total number of failed shell  elements =       0
      total number of failed tshell elements =       0

 S u m m a r y   F r o m   A l l  P r o c e s s o r s
 f a i l e d   e l e m e n t   r e p o r t  time= 1.73280E-05

 CPU     0 CPU     1 CPU     2 CPU     3                                        
 --------- --------- --------- ---------                                        
       660       698       519       511  
         0         0         0         0  
         0         0         0         0  
         0         0         0         0  

      total number of failed solid  elements =    2388
      total number of failed beam   elements =       0
      total number of failed shell  elements =       0
      total number of failed tshell elements =       0

 S u m m a r y   F r o m   A l l  P r o c e s s o r s
 f a i l e d   e l e m e n t   r e p o r t  time= 1.73651E-05

 CPU     0 CPU     1 CPU     2 CPU     3                                        
 --------- --------- --------- ---------                                        
       660       698       519       512  
         0         0         0         0  
         0         0         0         0  
         0         0         0         0  

      total number of failed solid  elements =    2389
      total number of failed beam   elements =       0
      total number of failed shell  elements =       0
      total number of failed tshell elements =       0

 S u m m a r y   F r o m   A l l  P r o c e s s o r s
 f a i l e d   e l e m e n t   r e p o r t  time= 1.73681E-05

 CPU     0 CPU     1 CPU     2 CPU     3                                        
 --------- --------- --------- ---------                                        
       660       698       519       513  
         0         0         0         0  
         0         0         0         0  
         0         0         0         0  

      total number of failed solid  elements =    2390
      total number of failed beam   elements =       0
      total number of failed shell  elements =       0
      total number of failed tshell elements =       0

 S u m m a r y   F r o m   A l l  P r o c e s s o r s
 f a i l e d   e l e m e n t   r e p o r t  time= 1.74320E-05

 CPU     0 CPU     1 CPU     2 CPU     3                                        
 --------- --------- --------- ---------                                        
       660       698       519       514  
         0         0         0         0  
         0         0         0         0  
         0         0         0         0  

      total number of failed solid  elements =    2391
      total number of failed beam   elements =       0
      total number of failed shell  elements =       0
      total number of failed tshell elements =       0

 S u m m a r y   F r o m   A l l  P r o c e s s o r s
 f a i l e d   e l e m e n t   r e p o r t  time= 1.74379E-05

 CPU     0 CPU     1 CPU     2 CPU     3                                        
 --------- --------- --------- ---------                                        
       660       698       519       515  
         0         0         0         0  
         0         0         0         0  
         0         0         0         0  

      total number of failed solid  elements =    2392
      total number of failed beam   elements =       0
      total number of failed shell  elements =       0
      total number of failed tshell elements =       0
   12081 t 1.7776E-05 dt 1.49E-09 write d3plot file            04/04/22 13:34:34
   12572 t 1.8516E-05 dt 1.58E-09 write d3plot file            04/04/22 13:34:35

 S u m m a r y   F r o m   A l l  P r o c e s s o r s
 f a i l e d   e l e m e n t   r e p o r t  time= 1.86923E-05

 CPU     0 CPU     1 CPU     2 CPU     3                                        
 --------- --------- --------- ---------                                        
       660       698       520       515  
         0         0         0         0  
         0         0         0         0  
         0         0         0         0  

      total number of failed solid  elements =    2393
      total number of failed beam   elements =       0
      total number of failed shell  elements =       0
      total number of failed tshell elements =       0

 S u m m a r y   F r o m   A l l  P r o c e s s o r s
 f a i l e d   e l e m e n t   r e p o r t  time= 1.87112E-05

 CPU     0 CPU     1 CPU     2 CPU     3                                        
 --------- --------- --------- ---------                                        
       660       698       521       515  
         0         0         0         0  
         0         0         0         0  
         0         0         0         0  

      total number of failed solid  elements =    2394
      total number of failed beam   elements =       0
      total number of failed shell  elements =       0
      total number of failed tshell elements =       0
   13042 t 1.9256E-05 dt 1.49E-09 write d3plot file            04/04/22 13:34:36

 S u m m a r y   F r o m   A l l  P r o c e s s o r s
 f a i l e d   e l e m e n t   r e p o r t  time= 1.98199E-05

 CPU     0 CPU     1 CPU     2 CPU     3                                        
 --------- --------- --------- ---------                                        
       660       698       522       515  
         0         0         0         0  
         0         0         0         0  
         0         0         0         0  

      total number of failed solid  elements =    2395
      total number of failed beam   elements =       0
      total number of failed shell  elements =       0
      total number of failed tshell elements =       0

 S u m m a r y   F r o m   A l l  P r o c e s s o r s
 f a i l e d   e l e m e n t   r e p o r t  time= 1.98244E-05

 CPU     0 CPU     1 CPU     2 CPU     3                                        
 --------- --------- --------- ---------                                        
       660       698       522       516  
         0         0         0         0  
         0         0         0         0  
         0         0         0         0  

      total number of failed solid  elements =    2396
      total number of failed beam   elements =       0
      total number of failed shell  elements =       0
      total number of failed tshell elements =       0

 S u m m a r y   F r o m   A l l  P r o c e s s o r s
 f a i l e d   e l e m e n t   r e p o r t  time= 1.98378E-05

 CPU     0 CPU     1 CPU     2 CPU     3                                        
 --------- --------- --------- ---------                                        
       660       698       523       516  
         0         0         0         0  
         0         0         0         0  
         0         0         0         0  

      total number of failed solid  elements =    2397
      total number of failed beam   elements =       0
      total number of failed shell  elements =       0
      total number of failed tshell elements =       0

 S u m m a r y   F r o m   A l l  P r o c e s s o r s
 f a i l e d   e l e m e n t   r e p o r t  time= 1.98900E-05

 CPU     0 CPU     1 CPU     2 CPU     3                                        
 --------- --------- --------- ---------                                        
       660       698       524       516  
         0         0         0         0  
         0         0         0         0  
         0         0         0         0  

      total number of failed solid  elements =    2398
      total number of failed beam   elements =       0
      total number of failed shell  elements =       0
      total number of failed tshell elements =       0

 S u m m a r y   F r o m   A l l  P r o c e s s o r s
 f a i l e d   e l e m e n t   r e p o r t  time= 1.99183E-05

 CPU     0 CPU     1 CPU     2 CPU     3                                        
 --------- --------- --------- ---------                                        
       660       698       524       517  
         0         0         0         0  
         0         0         0         0  
         0         0         0         0  

      total number of failed solid  elements =    2399
      total number of failed beam   elements =       0
      total number of failed shell  elements =       0
      total number of failed tshell elements =       0
   13539 t 1.9997E-05 dt 1.49E-09 write d3plot file            04/04/22 13:34:36

 S u m m a r y   F r o m   A l l  P r o c e s s o r s
 f a i l e d   e l e m e n t   r e p o r t  time= 2.06473E-05

 CPU     0 CPU     1 CPU     2 CPU     3                                        
 --------- --------- --------- ---------                                        
       660       698       525       517  
         0         0         0         0  
         0         0         0         0  
         0         0         0         0  

      total number of failed solid  elements =    2400
      total number of failed beam   elements =       0
      total number of failed shell  elements =       0
      total number of failed tshell elements =       0
   14009 t 2.0738E-05 dt 1.58E-09 write d3plot file            04/04/22 13:34:37

 S u m m a r y   F r o m   A l l  P r o c e s s o r s
 f a i l e d   e l e m e n t   r e p o r t  time= 2.10483E-05

 CPU     0 CPU     1 CPU     2 CPU     3                                        
 --------- --------- --------- ---------                                        
       660       698       526       517  
         0         0         0         0  
         0         0         0         0  
         0         0         0         0  

      total number of failed solid  elements =    2401
      total number of failed beam   elements =       0
      total number of failed shell  elements =       0
      total number of failed tshell elements =       0
   14490 t 2.1479E-05 dt 1.49E-09 write d3plot file            04/04/22 13:34:38
 
 *** termination time reached ***
   14839 t 2.2001E-05 dt 1.49E-09 write d3dump01 file          04/04/22 13:34:41
   14839 t 2.2001E-05 dt 1.49E-09 flush i/o buffers            04/04/22 13:34:41
   14839 t 2.2001E-05 dt 1.49E-09 write d3plot file            04/04/22 13:34:41

 N o r m a l    t e r m i n a t i o n                          04/04/22 13:34:41

 S t o r a g e   a l l o c a t i o n   

 Memory required to complete solution (memory=    846K memory2=     79K)
          Minimum     78K on processor     3
          Maximum     79K on processor     1
          Average     78K

 Additional dynamically allocated memory
          Minimum   9351K on processor     2
          Maximum   9857K on processor     0
          Average   9497K

 Total allocated memory
          Minimum   9428K on processor     2
          Maximum   9934K on processor     0
          Average   9574K

 T i m i n g   i n f o r m a t i o n
                        CPU(seconds)   %CPU  Clock(seconds) %Clock
  ----------------------------------------------------------------
  Keyword Processing ... 2.3692E-01    0.80     3.0056E-01    0.91
    KW Reading ......... 5.3708E-03    0.02     3.2662E-02    0.10
    KW Writing ......... 3.1007E-03    0.01     1.2745E-02    0.04
  MPP Decomposition .... 2.3324E-01    0.79     3.1289E-01    0.95
    Init Proc .......... 1.9075E-01    0.64     2.2869E-01    0.69
    Decomposition ...... 1.0078E-02    0.03     1.5148E-02    0.05
    Translation ........ 3.2363E-02    0.11     6.9003E-02    0.21
  Initialization ....... 1.2995E-01    0.44     2.5650E-01    0.78
    Init Proc Phase 1 .. 8.7767E-02    0.30     1.2867E-01    0.39
    Init Proc Phase 2 .. 5.3397E-03    0.02     3.0113E-02    0.09
  Init solver .......... 4.9351E-04    0.00     3.8147E-03    0.01
  Element processing ... 4.6631E+00   15.75     4.7137E+00   14.27
    Solids ............. 4.3487E+00   14.69     4.3873E+00   13.28
    E Other ............ 1.8521E-02    0.06     1.8568E-02    0.06
  Binary databases ..... 1.3316E-01    0.45     1.4708E-01    0.45
  ASCII database ....... 3.5591E-01    1.20     1.0668E+00    3.23
  Contact algorithm .... 1.3388E+01   45.23     1.3459E+01   40.75
    Interf. ID         3 1.0218E+01   34.52     1.0269E+01   31.09
    Interf. ID         2 2.5556E+00    8.63     2.5695E+00    7.78
  Rigid Bodies ......... 1.9838E-02    0.07     2.1476E-02    0.07
  DEM .................. 2.9497E+00    9.97     2.9639E+00    8.97
    DEM self contact ... 2.9087E+00    9.83     2.9229E+00    8.85
  Time step size ....... 2.2244E+00    7.52     2.2370E+00    6.77
  Group force file ..... 1.0030E-02    0.03     1.2278E-02    0.04
  Others ............... 3.8681E-01    1.31     3.8899E-01    1.18
    Force Sharing ...... 3.0144E-01    1.02     3.0241E-01    0.92
  Misc. 1 .............. 1.5236E+00    5.15     1.5781E+00    4.78
    Scale Masses ....... 4.2671E-03    0.01     4.3032E-03    0.01
    Force Constraints .. 4.7714E-03    0.02     4.7617E-03    0.01
    Force to Accel ..... 1.2385E-01    0.42     1.2413E-01    0.38
    Constraint Sharing . 5.3785E-03    0.02     5.4202E-03    0.02
    Update RB nodes .... 5.9890E-03    0.02     6.5860E-03    0.02
  Misc. 2 .............. 2.3301E-01    0.79     2.3502E-01    0.71
  Misc. 3 .............. 3.0332E+00   10.25     5.2506E+00   15.90
  Misc. 4 .............. 7.6579E-02    0.26     8.3307E-02    0.25
    Timestep Init ...... 3.9557E-02    0.13     4.0872E-02    0.12
    Apply Loads ........ 2.5505E-02    0.09     2.9199E-02    0.09
  ----------------------------------------------------------------
  T o t a l s            2.9598E+01  100.00     3.3031E+01  100.00

 Problem time       =    2.2001E-05
 Problem cycle      =     14839
 Total CPU time     =        30 seconds (   0 hours  0 minutes 30 seconds)
 CPU time per zone cycle  =        640.811 nanoseconds
 Clock time per zone cycle=        701.651 nanoseconds

 Parallel execution with      4 MPP proc
 NLQ used/max                64/    64

  C P U   T i m i n g   i n f o r m a t i o n

  Processor   Hostname                              CPU/Avg_CPU  CPU(seconds)
  ---------------------------------------------------------------------------
  #       0   compute-0-6                               0.89983   2.6680E+01
  #       1   compute-0-6                               1.03272   3.0620E+01
  #       2   compute-0-6                               1.03339   3.0640E+01
  #       3   compute-0-6                               1.03406   3.0660E+01
  ---------------------------------------------------------------------------
  T o t a l s                                                     1.1860E+02


 Start time   04/04/2022 13:34:08  
 End time     04/04/2022 13:34:41  
 Elapsed time      33 seconds for   14839 cycles using     4 MPP procs
             (      0 hour   0 minute  33 seconds)

 N o r m a l    t e r m i n a t i o n                          04/04/22 13:34:41
