 LS-DYNA keyword deck by LS-PrePost                                      
                         ls-dyna mpp.148931 d           date 06/19/2020


 dt of cycle       1 is controlled by solid           6267 of part         3

 time...........................   0.00000E+00
 time step......................   3.00669E-09
 kinetic energy.................   1.88217E+05
 internal energy................   3.20000E-19
 spring and damper energy.......   1.60000E-19
 hourglass energy ..............   0.00000E+00
 system damping energy..........   0.00000E+00
 sliding interface energy.......   0.00000E+00
 external work..................   0.00000E+00
 eroded kinetic energy..........   0.00000E+00
 eroded internal energy.........   0.00000E+00
 eroded hourglass energy........   0.00000E+00
 total energy...................   1.88217E+05
 total energy / initial energy..   1.00000E+00
 energy ratio w/o eroded energy.   1.00000E+00
 global x velocity..............   4.51331E+05
 global y velocity..............   0.00000E+00
 global z velocity..............   0.00000E+00
 time per zone cycle.(nanosec)..             0

  m a s s   p r o p e r t i e s   o f   b o d y
     total mass of body          = 1.24485715E-07
     x-coordinate of mass center =-2.79329760E+01
     y-coordinate of mass center = 1.54158975E-15
     z-coordinate of mass center = 1.25000000E-01

     inertia tensor of body
     row1=     1.2792E-05     8.0402E-20     6.9833E-16
     row2=     8.0402E-20     2.7465E-04     7.4446E-24
     row3=     6.9833E-16     7.4446E-24     2.8744E-04



     principal inertias of body
     i11 =     1.2792E-05
     i22 =     2.7465E-04
     i33 =     2.8744E-04

     principal directions
     row1=     1.0000E+00     0.0000E+00     2.5426E-12
     row2=     0.0000E+00     1.0000E+00     0.0000E+00
     row3=    -2.5426E-12     0.0000E+00     1.0000E+00

 ************************************************************



 dt of cycle       4 is controlled by solid           6150 of part         3

 time...........................   9.02007E-09
 time step......................   3.00669E-09
 kinetic energy.................   1.88217E+05
 internal energy................   3.20000E-19
 spring and damper energy.......   1.60000E-19
 hourglass energy ..............   2.16403E-28
 system damping energy..........   0.00000E+00
 sliding interface energy.......   0.00000E+00
 external work..................   0.00000E+00
 eroded kinetic energy..........   0.00000E+00
 eroded internal energy.........   0.00000E+00
 eroded hourglass energy........   0.00000E+00
 total energy...................   1.88217E+05
 total energy / initial energy..   1.00000E+00
 energy ratio w/o eroded energy.   1.00000E+00
 global x velocity..............   4.51331E+05
 global y velocity..............  -7.55424E-31
 global z velocity..............   0.00000E+00
 time per zone cycle.(nanosec)..           152

  m a s s   p r o p e r t i e s   o f   b o d y
     total mass of body          = 1.24485715E-07
     x-coordinate of mass center =-2.79289049E+01
     y-coordinate of mass center = 1.54158975E-15
     z-coordinate of mass center = 1.25000000E-01

     inertia tensor of body
     row1=     1.2792E-05     8.1249E-20     6.9822E-16
     row2=     8.1249E-20     2.7457E-04     7.4446E-24
     row3=     6.9822E-16     7.4446E-24     2.8736E-04



     principal inertias of body
     i11 =     1.2792E-05
     i22 =     2.7457E-04
     i33 =     2.8736E-04

     principal directions
     row1=     1.0000E+00     0.0000E+00     2.5430E-12
     row2=     0.0000E+00     1.0000E+00     0.0000E+00
     row3=    -2.5430E-12     0.0000E+00     1.0000E+00

 ************************************************************



 dt of cycle       7 is controlled by solid           6150 of part         3

 time...........................   1.80401E-08
 time step......................   3.00669E-09
 kinetic energy.................   1.88217E+05
 internal energy................   3.20000E-19
 spring and damper energy.......   1.60000E-19
 hourglass energy ..............   4.32806E-28
 system damping energy..........   0.00000E+00
 sliding interface energy.......   0.00000E+00
 external work..................   0.00000E+00
 eroded kinetic energy..........   0.00000E+00
 eroded internal energy.........   0.00000E+00
 eroded hourglass energy........   0.00000E+00
 total energy...................   1.88217E+05
 total energy / initial energy..   1.00000E+00
 energy ratio w/o eroded energy.   1.00000E+00
 global x velocity..............   4.51331E+05
 global y velocity..............  -1.51085E-30
 global z velocity..............   0.00000E+00
 time per zone cycle.(nanosec)..           141

  m a s s   p r o p e r t i e s   o f   b o d y
     total mass of body          = 1.24485715E-07
     x-coordinate of mass center =-2.79248339E+01
     y-coordinate of mass center = 1.54158975E-15
     z-coordinate of mass center = 1.25000000E-01

     inertia tensor of body
     row1=     1.2792E-05     8.0403E-20     6.9812E-16
     row2=     8.0403E-20     2.7449E-04     7.4446E-24
     row3=     6.9812E-16     7.4446E-24     2.8728E-04



     principal inertias of body
     i11 =     1.2792E-05
     i22 =     2.7449E-04
     i33 =     2.8728E-04

     principal directions
     row1=     1.0000E+00     0.0000E+00     2.5434E-12
     row2=     0.0000E+00     1.0000E+00     0.0000E+00
     row3=    -2.5434E-12     0.0000E+00     1.0000E+00

 ************************************************************



 dt of cycle      10 is controlled by solid           6150 of part         3

 time...........................   2.70602E-08
 time step......................   3.00669E-09
 kinetic energy.................   1.88217E+05
 internal energy................   3.20000E-19
 spring and damper energy.......   1.60000E-19
 hourglass energy ..............   6.49215E-28
 system damping energy..........   0.00000E+00
 sliding interface energy.......   0.00000E+00
 external work..................   0.00000E+00
 eroded kinetic energy..........   0.00000E+00
 eroded internal energy.........   0.00000E+00
 eroded hourglass energy........   0.00000E+00
 total energy...................   1.88217E+05
 total energy / initial energy..   1.00000E+00
 energy ratio w/o eroded energy.   1.00000E+00
 global x velocity..............   4.51331E+05
 global y velocity..............   1.51085E-30
 global z velocity..............   0.00000E+00
 time per zone cycle.(nanosec)..           139

  m a s s   p r o p e r t i e s   o f   b o d y
     total mass of body          = 1.24485715E-07
     x-coordinate of mass center =-2.79207629E+01
     y-coordinate of mass center = 1.54158975E-15
     z-coordinate of mass center = 1.25000000E-01

     inertia tensor of body
     row1=     1.2792E-05     8.1251E-20     6.9802E-16
     row2=     8.1251E-20     2.7441E-04     7.4446E-24
     row3=     6.9802E-16     7.4446E-24     2.8720E-04



     principal inertias of body
     i11 =     1.2792E-05
     i22 =     2.7441E-04
     i33 =     2.8720E-04

     principal directions
     row1=     1.0000E+00     0.0000E+00     2.5438E-12
     row2=     0.0000E+00     1.0000E+00     0.0000E+00
     row3=    -2.5438E-12     0.0000E+00     1.0000E+00

 ************************************************************



 dt of cycle      14 is controlled by solid           6150 of part         3

 time...........................   3.90870E-08
 time step......................   3.00669E-09
 kinetic energy.................   1.88217E+05
 internal energy................   3.20000E-19
 spring and damper energy.......   1.60000E-19
 hourglass energy ..............   9.37790E-28
 system damping energy..........   0.00000E+00
 sliding interface energy.......   0.00000E+00
 external work..................   0.00000E+00
 eroded kinetic energy..........   0.00000E+00
 eroded internal energy.........   0.00000E+00
 eroded hourglass energy........   0.00000E+00
 total energy...................   1.88217E+05
 total energy / initial energy..   1.00000E+00
 energy ratio w/o eroded energy.   1.00000E+00
 global x velocity..............   4.51331E+05
 global y velocity..............  -6.04340E-30
 global z velocity..............   0.00000E+00
 time per zone cycle.(nanosec)..           152

  m a s s   p r o p e r t i e s   o f   b o d y
     total mass of body          = 1.24485715E-07
     x-coordinate of mass center =-2.79153348E+01
     y-coordinate of mass center = 1.54158975E-15
     z-coordinate of mass center = 1.25000000E-01

     inertia tensor of body
     row1=     1.2792E-05     8.1252E-20     6.9789E-16
     row2=     8.1252E-20     2.7430E-04     7.4446E-24
     row3=     6.9789E-16     7.4446E-24     2.8709E-04



     principal inertias of body
     i11 =     1.2792E-05
     i22 =     2.7430E-04
     i33 =     2.8709E-04

     principal directions
     row1=     1.0000E+00     0.0000E+00     2.5442E-12
     row2=     0.0000E+00     1.0000E+00     0.0000E+00
     row3=    -2.5442E-12     0.0000E+00     1.0000E+00

 ************************************************************



 dt of cycle      17 is controlled by solid           6150 of part         3

 time...........................   4.81070E-08
 time step......................   3.00669E-09
 kinetic energy.................   1.88217E+05
 internal energy................   3.20000E-19
 spring and damper energy.......   1.60000E-19
 hourglass energy ..............   1.15427E-27
 system damping energy..........   0.00000E+00
 sliding interface energy.......   0.00000E+00
 external work..................   0.00000E+00
 eroded kinetic energy..........   0.00000E+00
 eroded internal energy.........   0.00000E+00
 eroded hourglass energy........   0.00000E+00
 total energy...................   1.88217E+05
 total energy / initial energy..   1.00000E+00
 energy ratio w/o eroded energy.   1.00000E+00
 global x velocity..............   4.51331E+05
 global y velocity..............  -1.51085E-29
 global z velocity..............   0.00000E+00
 time per zone cycle.(nanosec)..           142

  m a s s   p r o p e r t i e s   o f   b o d y
     total mass of body          = 1.24485715E-07
     x-coordinate of mass center =-2.79112638E+01
     y-coordinate of mass center = 1.54158975E-15
     z-coordinate of mass center = 1.25000000E-01

     inertia tensor of body
     row1=     1.2792E-05     8.1253E-20     6.9778E-16
     row2=     8.1253E-20     2.7422E-04     7.4446E-24
     row3=     6.9778E-16     7.4446E-24     2.8701E-04



     principal inertias of body
     i11 =     1.2792E-05
     i22 =     2.7422E-04
     i33 =     2.8701E-04

     principal directions
     row1=     1.0000E+00     0.0000E+00     2.5446E-12
     row2=     0.0000E+00     1.0000E+00     0.0000E+00
     row3=    -2.5446E-12     0.0000E+00     1.0000E+00

 ************************************************************



 dt of cycle      20 is controlled by solid           6150 of part         3

 time...........................   5.71271E-08
 time step......................   3.00669E-09
 kinetic energy.................   1.88217E+05
 internal energy................   3.20000E-19
 spring and damper energy.......   1.60000E-19
 hourglass energy ..............   1.37082E-27
 system damping energy..........   0.00000E+00
 sliding interface energy.......   0.00000E+00
 external work..................   0.00000E+00
 eroded kinetic energy..........   0.00000E+00
 eroded internal energy.........   0.00000E+00
 eroded hourglass energy........   0.00000E+00
 total energy...................   1.88217E+05
 total energy / initial energy..   1.00000E+00
 energy ratio w/o eroded energy.   1.00000E+00
 global x velocity..............   4.51331E+05
 global y velocity..............   1.81302E-29
 global z velocity..............   0.00000E+00
 time per zone cycle.(nanosec)..           136

  m a s s   p r o p e r t i e s   o f   b o d y
     total mass of body          = 1.24485715E-07
     x-coordinate of mass center =-2.79071927E+01
     y-coordinate of mass center = 1.54158975E-15
     z-coordinate of mass center = 1.25000000E-01

     inertia tensor of body
     row1=     1.2792E-05     8.1254E-20     6.9768E-16
     row2=     8.1254E-20     2.7414E-04     7.4446E-24
     row3=     6.9768E-16     7.4446E-24     2.8693E-04



     principal inertias of body
     i11 =     1.2792E-05
     i22 =     2.7414E-04
     i33 =     2.8693E-04

     principal directions
     row1=     1.0000E+00     0.0000E+00     2.5450E-12
     row2=     0.0000E+00     1.0000E+00     0.0000E+00
     row3=    -2.5450E-12     0.0000E+00     1.0000E+00

 ************************************************************



 dt of cycle      24 is controlled by solid           6150 of part         3

 time...........................   6.91538E-08
 time step......................   3.00669E-09
 kinetic energy.................   1.88217E+05
 internal energy................   3.20000E-19
 spring and damper energy.......   1.60000E-19
 hourglass energy ..............   1.65972E-27
 system damping energy..........   0.00000E+00
 sliding interface energy.......   0.00000E+00
 external work..................   0.00000E+00
 eroded kinetic energy..........   0.00000E+00
 eroded internal energy.........   0.00000E+00
 eroded hourglass energy........   0.00000E+00
 total energy...................   1.88217E+05
 total energy / initial energy..   1.00000E+00
 energy ratio w/o eroded energy.   1.00000E+00
 global x velocity..............   4.51331E+05
 global y velocity..............   6.04340E-30
 global z velocity..............   0.00000E+00
 time per zone cycle.(nanosec)..           159

  m a s s   p r o p e r t i e s   o f   b o d y
     total mass of body          = 1.24485715E-07
     x-coordinate of mass center =-2.79017647E+01
     y-coordinate of mass center = 1.54158975E-15
     z-coordinate of mass center = 1.25000000E-01

     inertia tensor of body
     row1=     1.2792E-05     8.0408E-20     6.9755E-16
     row2=     8.0408E-20     2.7404E-04     7.4446E-24
     row3=     6.9755E-16     7.4446E-24     2.8682E-04



     principal inertias of body
     i11 =     1.2792E-05
     i22 =     2.7404E-04
     i33 =     2.8682E-04

     principal directions
     row1=     1.0000E+00     0.0000E+00     2.5455E-12
     row2=     0.0000E+00     1.0000E+00     0.0000E+00
     row3=    -2.5455E-12     0.0000E+00     1.0000E+00

 ************************************************************



 dt of cycle      27 is controlled by solid           6150 of part         3

 time...........................   7.81739E-08
 time step......................   3.00669E-09
 kinetic energy.................   1.88217E+05
 internal energy................   3.20000E-19
 spring and damper energy.......   1.60000E-19
 hourglass energy ..............   1.87656E-27
 system damping energy..........   0.00000E+00
 sliding interface energy.......   0.00000E+00
 external work..................   0.00000E+00
 eroded kinetic energy..........   0.00000E+00
 eroded internal energy.........   0.00000E+00
 eroded hourglass energy........   0.00000E+00
 total energy...................   1.88217E+05
 total energy / initial energy..   1.00000E+00
 energy ratio w/o eroded energy.   1.00000E+00
 global x velocity..............   4.51331E+05
 global y velocity..............  -1.20868E-29
 global z velocity..............   0.00000E+00
 time per zone cycle.(nanosec)..           145

  m a s s   p r o p e r t i e s   o f   b o d y
     total mass of body          = 1.24485715E-07
     x-coordinate of mass center =-2.78976936E+01
     y-coordinate of mass center = 1.54158975E-15
     z-coordinate of mass center = 1.25000000E-01

     inertia tensor of body
     row1=     1.2792E-05     8.0408E-20     6.9744E-16
     row2=     8.0408E-20     2.7396E-04     7.4446E-24
     row3=     6.9744E-16     7.4446E-24     2.8675E-04



     principal inertias of body
     i11 =     1.2792E-05
     i22 =     2.7396E-04
     i33 =     2.8675E-04

     principal directions
     row1=     1.0000E+00     0.0000E+00     2.5459E-12
     row2=     0.0000E+00     1.0000E+00     0.0000E+00
     row3=    -2.5459E-12     0.0000E+00     1.0000E+00

 ************************************************************



 dt of cycle      30 is controlled by solid           6150 of part         3

 time...........................   8.71940E-08
 time step......................   3.00669E-09
 kinetic energy.................   1.88217E+05
 internal energy................   3.20000E-19
 spring and damper energy.......   1.60000E-19
 hourglass energy ..............   2.01951E-27
 system damping energy..........   0.00000E+00
 sliding interface energy.......   0.00000E+00
 external work..................   0.00000E+00
 eroded kinetic energy..........   0.00000E+00
 eroded internal energy.........   0.00000E+00
 eroded hourglass energy........   0.00000E+00
 total energy...................   1.88217E+05
 total energy / initial energy..   1.00000E+00
 energy ratio w/o eroded energy.   1.00000E+00
 global x velocity..............   4.51331E+05
 global y velocity..............  -3.02170E-29
 global z velocity..............   0.00000E+00
 time per zone cycle.(nanosec)..           149

  m a s s   p r o p e r t i e s   o f   b o d y
     total mass of body          = 1.24485715E-07
     x-coordinate of mass center =-2.78936226E+01
     y-coordinate of mass center = 1.54158975E-15
     z-coordinate of mass center = 1.25000000E-01

     inertia tensor of body
     row1=     1.2792E-05     8.1256E-20     6.9734E-16
     row2=     8.1256E-20     2.7388E-04     7.4446E-24
     row3=     6.9734E-16     7.4446E-24     2.8667E-04



     principal inertias of body
     i11 =     1.2792E-05
     i22 =     2.7388E-04
     i33 =     2.8667E-04

     principal directions
     row1=     1.0000E+00     0.0000E+00     2.5462E-12
     row2=     0.0000E+00     1.0000E+00     0.0000E+00
     row3=    -2.5462E-12     0.0000E+00     1.0000E+00

 ************************************************************



 dt of cycle      34 is controlled by solid           6150 of part         3

 time...........................   9.92207E-08
 time step......................   3.00669E-09
 kinetic energy.................   1.88217E+05
 internal energy................   3.20000E-19
 spring and damper energy.......   1.60000E-19
 hourglass energy ..............   2.30912E-27
 system damping energy..........   0.00000E+00
 sliding interface energy.......   0.00000E+00
 external work..................   0.00000E+00
 eroded kinetic energy..........   0.00000E+00
 eroded internal energy.........   0.00000E+00
 eroded hourglass energy........   0.00000E+00
 total energy...................   1.88217E+05
 total energy / initial energy..   1.00000E+00
 energy ratio w/o eroded energy.   1.00000E+00
 global x velocity..............   4.51331E+05
 global y velocity..............  -4.83472E-29
 global z velocity..............   0.00000E+00
 time per zone cycle.(nanosec)..           159

  m a s s   p r o p e r t i e s   o f   b o d y
     total mass of body          = 1.24485715E-07
     x-coordinate of mass center =-2.78881946E+01
     y-coordinate of mass center = 1.54158975E-15
     z-coordinate of mass center = 1.25000000E-01

     inertia tensor of body
     row1=     1.2792E-05     8.1257E-20     6.9721E-16
     row2=     8.1257E-20     2.7377E-04     7.4446E-24
     row3=     6.9721E-16     7.4446E-24     2.8656E-04



     principal inertias of body
     i11 =     1.2792E-05
     i22 =     2.7377E-04
     i33 =     2.8656E-04

     principal directions
     row1=     1.0000E+00     0.0000E+00     2.5467E-12
     row2=     0.0000E+00     1.0000E+00     0.0000E+00
     row3=    -2.5467E-12     0.0000E+00     1.0000E+00

 ************************************************************



 dt of cycle      37 is controlled by solid           6150 of part         3

 time...........................   1.08241E-07
 time step......................   3.00669E-09
 kinetic energy.................   1.88217E+05
 internal energy................   3.20000E-19
 spring and damper energy.......   1.60000E-19
 hourglass energy ..............   2.52656E-27
 system damping energy..........   0.00000E+00
 sliding interface energy.......   0.00000E+00
 external work..................   0.00000E+00
 eroded kinetic energy..........   0.00000E+00
 eroded internal energy.........   0.00000E+00
 eroded hourglass energy........   0.00000E+00
 total energy...................   1.88217E+05
 total energy / initial energy..   1.00000E+00
 energy ratio w/o eroded energy.   1.00000E+00
 global x velocity..............   4.51331E+05
 global y velocity..............  -2.41736E-29
 global z velocity..............   0.00000E+00
 time per zone cycle.(nanosec)..           146

  m a s s   p r o p e r t i e s   o f   b o d y
     total mass of body          = 1.24485715E-07
     x-coordinate of mass center =-2.78841235E+01
     y-coordinate of mass center = 1.54158975E-15
     z-coordinate of mass center = 1.25000000E-01

     inertia tensor of body
     row1=     1.2792E-05     8.1258E-20     6.9710E-16
     row2=     8.1258E-20     2.7369E-04     7.4446E-24
     row3=     6.9710E-16     7.4446E-24     2.8648E-04



     principal inertias of body
     i11 =     1.2792E-05
     i22 =     2.7369E-04
     i33 =     2.8648E-04

     principal directions
     row1=     1.0000E+00     0.0000E+00     2.5471E-12
     row2=     0.0000E+00     1.0000E+00     0.0000E+00
     row3=    -2.5471E-12     0.0000E+00     1.0000E+00

 ************************************************************



 dt of cycle      40 is controlled by solid           6150 of part         3

 time...........................   1.17261E-07
 time step......................   3.00669E-09
 kinetic energy.................   1.88217E+05
 internal energy................   3.20000E-19
 spring and damper energy.......   1.60000E-19
 hourglass energy ..............   2.74419E-27
 system damping energy..........   0.00000E+00
 sliding interface energy.......   0.00000E+00
 external work..................   0.00000E+00
 eroded kinetic energy..........   0.00000E+00
 eroded internal energy.........   0.00000E+00
 eroded hourglass energy........   0.00000E+00
 total energy...................   1.88217E+05
 total energy / initial energy..   1.00000E+00
 energy ratio w/o eroded energy.   1.00000E+00
 global x velocity..............   4.51331E+05
 global y velocity..............  -9.66943E-29
 global z velocity..............   0.00000E+00
 time per zone cycle.(nanosec)..           146

  m a s s   p r o p e r t i e s   o f   b o d y
     total mass of body          = 1.24485715E-07
     x-coordinate of mass center =-2.78800525E+01
     y-coordinate of mass center = 1.54158975E-15
     z-coordinate of mass center = 1.25000000E-01

     inertia tensor of body
     row1=     1.2792E-05     8.0412E-20     6.9700E-16
     row2=     8.0412E-20     2.7361E-04     7.4446E-24
     row3=     6.9700E-16     7.4446E-24     2.8640E-04



     principal inertias of body
     i11 =     1.2792E-05
     i22 =     2.7361E-04
     i33 =     2.8640E-04

     principal directions
     row1=     1.0000E+00     0.0000E+00     2.5474E-12
     row2=     0.0000E+00     1.0000E+00     0.0000E+00
     row3=    -2.5474E-12     0.0000E+00     1.0000E+00

 ************************************************************



 dt of cycle      44 is controlled by solid           6150 of part         3

 time...........................   1.29288E-07
 time step......................   3.00669E-09
 kinetic energy.................   1.88217E+05
 internal energy................   3.20000E-19
 spring and damper energy.......   1.60000E-19
 hourglass energy ..............   3.03466E-27
 system damping energy..........   0.00000E+00
 sliding interface energy.......   0.00000E+00
 external work..................   0.00000E+00
 eroded kinetic energy..........   0.00000E+00
 eroded internal energy.........   0.00000E+00
 eroded hourglass energy........   0.00000E+00
 total energy...................   1.88217E+05
 total energy / initial energy..   1.00000E+00
 energy ratio w/o eroded energy.   1.00000E+00
 global x velocity..............   4.51331E+05
 global y velocity..............   2.41736E-29
 global z velocity..............   0.00000E+00
 time per zone cycle.(nanosec)..           154

  m a s s   p r o p e r t i e s   o f   b o d y
     total mass of body          = 1.24485715E-07
     x-coordinate of mass center =-2.78746244E+01
     y-coordinate of mass center = 1.54158975E-15
     z-coordinate of mass center = 1.25000000E-01

     inertia tensor of body
     row1=     1.2792E-05     8.0413E-20     6.9687E-16
     row2=     8.0413E-20     2.7351E-04     7.4446E-24
     row3=     6.9687E-16     7.4446E-24     2.8629E-04



     principal inertias of body
     i11 =     1.2792E-05
     i22 =     2.7351E-04
     i33 =     2.8629E-04

     principal directions
     row1=     1.0000E+00     0.0000E+00     2.5479E-12
     row2=     0.0000E+00     1.0000E+00     0.0000E+00
     row3=    -2.5479E-12     0.0000E+00     1.0000E+00

 ************************************************************



 dt of cycle      47 is controlled by solid           6150 of part         3

 time...........................   1.38308E-07
 time step......................   3.00669E-09
 kinetic energy.................   1.88217E+05
 internal energy................   3.20000E-19
 spring and damper energy.......   1.60000E-19
 hourglass energy ..............   3.25272E-27
 system damping energy..........   0.00000E+00
 sliding interface energy.......   0.00000E+00
 external work..................   0.00000E+00
 eroded kinetic energy..........   0.00000E+00
 eroded internal energy.........   0.00000E+00
 eroded hourglass energy........   0.00000E+00
 total energy...................   1.88217E+05
 total energy / initial energy..   1.00000E+00
 energy ratio w/o eroded energy.   1.00000E+00
 global x velocity..............   4.51331E+05
 global y velocity..............   1.45041E-28
 global z velocity..............   0.00000E+00
 time per zone cycle.(nanosec)..           144

  m a s s   p r o p e r t i e s   o f   b o d y
     total mass of body          = 1.24485715E-07
     x-coordinate of mass center =-2.78705534E+01
     y-coordinate of mass center = 1.54158975E-15
     z-coordinate of mass center = 1.25000000E-01

     inertia tensor of body
     row1=     1.2792E-05     8.1261E-20     6.9677E-16
     row2=     8.1261E-20     2.7343E-04     7.4446E-24
     row3=     6.9677E-16     7.4446E-24     2.8622E-04



     principal inertias of body
     i11 =     1.2792E-05
     i22 =     2.7343E-04
     i33 =     2.8622E-04

     principal directions
     row1=     1.0000E+00     0.0000E+00     2.5483E-12
     row2=     0.0000E+00     1.0000E+00     0.0000E+00
     row3=    -2.5483E-12     0.0000E+00     1.0000E+00

 ************************************************************



 dt of cycle      50 is controlled by solid           6150 of part         3

 time...........................   1.47328E-07
 time step......................   3.00669E-09
 kinetic energy.................   1.88217E+05
 internal energy................   3.20000E-19
 spring and damper energy.......   1.60000E-19
 hourglass energy ..............   3.47370E-27
 system damping energy..........   0.00000E+00
 sliding interface energy.......   0.00000E+00
 external work..................   0.00000E+00
 eroded kinetic energy..........   0.00000E+00
 eroded internal energy.........   0.00000E+00
 eroded hourglass energy........   0.00000E+00
 total energy...................   1.88217E+05
 total energy / initial energy..   1.00000E+00
 energy ratio w/o eroded energy.   1.00000E+00
 global x velocity..............   4.51331E+05
 global y velocity..............   1.20868E-29
 global z velocity..............   0.00000E+00
 time per zone cycle.(nanosec)..           140

  m a s s   p r o p e r t i e s   o f   b o d y
     total mass of body          = 1.24485715E-07
     x-coordinate of mass center =-2.78664824E+01
     y-coordinate of mass center = 1.54158975E-15
     z-coordinate of mass center = 1.25000000E-01

     inertia tensor of body
     row1=     1.2792E-05     8.1261E-20     6.9666E-16
     row2=     8.1261E-20     2.7335E-04     7.4446E-24
     row3=     6.9666E-16     7.4446E-24     2.8614E-04



     principal inertias of body
     i11 =     1.2792E-05
     i22 =     2.7335E-04
     i33 =     2.8614E-04

     principal directions
     row1=     1.0000E+00     0.0000E+00     2.5487E-12
     row2=     0.0000E+00     1.0000E+00     0.0000E+00
     row3=    -2.5487E-12     0.0000E+00     1.0000E+00

 ************************************************************



 dt of cycle      54 is controlled by solid           6150 of part         3

 time...........................   1.59355E-07
 time step......................   3.00669E-09
 kinetic energy.................   1.88217E+05
 internal energy................   3.20000E-19
 spring and damper energy.......   1.60000E-19
 hourglass energy ..............   3.77195E-27
 system damping energy..........   0.00000E+00
 sliding interface energy.......   0.00000E+00
 external work..................   0.00000E+00
 eroded kinetic energy..........   0.00000E+00
 eroded internal energy.........   0.00000E+00
 eroded hourglass energy........   0.00000E+00
 total energy...................   1.88217E+05
 total energy / initial energy..   1.00000E+00
 energy ratio w/o eroded energy.   1.00000E+00
 global x velocity..............   4.51331E+05
 global y velocity..............   9.66943E-29
 global z velocity..............   0.00000E+00
 time per zone cycle.(nanosec)..           147

  m a s s   p r o p e r t i e s   o f   b o d y
     total mass of body          = 1.24485715E-07
     x-coordinate of mass center =-2.78610543E+01
     y-coordinate of mass center = 1.54158975E-15
     z-coordinate of mass center = 1.25000000E-01

     inertia tensor of body
     row1=     1.2792E-05     8.1262E-20     6.9653E-16
     row2=     8.1262E-20     2.7324E-04     7.4446E-24
     row3=     6.9653E-16     7.4446E-24     2.8603E-04



     principal inertias of body
     i11 =     1.2792E-05
     i22 =     2.7324E-04
     i33 =     2.8603E-04

     principal directions
     row1=     1.0000E+00     0.0000E+00     2.5492E-12
     row2=     0.0000E+00     1.0000E+00     0.0000E+00
     row3=    -2.5492E-12     0.0000E+00     1.0000E+00

 ************************************************************



 dt of cycle      57 is controlled by solid           6150 of part         3

 time...........................   1.68375E-07
 time step......................   3.00669E-09
 kinetic energy.................   1.88217E+05
 internal energy................   3.20000E-19
 spring and damper energy.......   1.60000E-19
 hourglass energy ..............   3.99580E-27
 system damping energy..........   0.00000E+00
 sliding interface energy.......   0.00000E+00
 external work..................   0.00000E+00
 eroded kinetic energy..........   0.00000E+00
 eroded internal energy.........   0.00000E+00
 eroded hourglass energy........   0.00000E+00
 total energy...................   1.88217E+05
 total energy / initial energy..   1.00000E+00
 energy ratio w/o eroded energy.   1.00000E+00
 global x velocity..............   4.51331E+05
 global y velocity..............   1.93389E-28
 global z velocity..............   0.00000E+00
 time per zone cycle.(nanosec)..           140

  m a s s   p r o p e r t i e s   o f   b o d y
     total mass of body          = 1.24485715E-07
     x-coordinate of mass center =-2.78569833E+01
     y-coordinate of mass center = 1.54158975E-15
     z-coordinate of mass center = 1.25000000E-01

     inertia tensor of body
     row1=     1.2792E-05     8.1263E-20     6.9643E-16
     row2=     8.1263E-20     2.7316E-04     7.4446E-24
     row3=     6.9643E-16     7.4446E-24     2.8595E-04



     principal inertias of body
     i11 =     1.2792E-05
     i22 =     2.7316E-04
     i33 =     2.8595E-04

     principal directions
     row1=     1.0000E+00     0.0000E+00     2.5495E-12
     row2=     0.0000E+00     1.0000E+00     0.0000E+00
     row3=    -2.5495E-12     0.0000E+00     1.0000E+00

 ************************************************************



 dt of cycle      60 is controlled by solid           6150 of part         3

 time...........................   1.77395E-07
 time step......................   3.00669E-09
 kinetic energy.................   1.88217E+05
 internal energy................   3.20000E-19
 spring and damper energy.......   1.60000E-19
 hourglass energy ..............   4.21978E-27
 system damping energy..........   0.00000E+00
 sliding interface energy.......   0.00000E+00
 external work..................   0.00000E+00
 eroded kinetic energy..........   0.00000E+00
 eroded internal energy.........   0.00000E+00
 eroded hourglass energy........   0.00000E+00
 total energy...................   1.88217E+05
 total energy / initial energy..   1.00000E+00
 energy ratio w/o eroded energy.   1.00000E+00
 global x velocity..............   4.51331E+05
 global y velocity..............   3.62604E-29
 global z velocity..............   0.00000E+00
 time per zone cycle.(nanosec)..           134

  m a s s   p r o p e r t i e s   o f   b o d y
     total mass of body          = 1.24485715E-07
     x-coordinate of mass center =-2.78529122E+01
     y-coordinate of mass center = 1.54158975E-15
     z-coordinate of mass center = 1.25000000E-01

     inertia tensor of body
     row1=     1.2792E-05     8.1264E-20     6.9632E-16
     row2=     8.1264E-20     2.7308E-04     7.4446E-24
     row3=     6.9632E-16     7.4446E-24     2.8587E-04



     principal inertias of body
     i11 =     1.2792E-05
     i22 =     2.7308E-04
     i33 =     2.8587E-04

     principal directions
     row1=     1.0000E+00     0.0000E+00     2.5499E-12
     row2=     0.0000E+00     1.0000E+00     0.0000E+00
     row3=    -2.5499E-12     0.0000E+00     1.0000E+00

 ************************************************************



 dt of cycle      64 is controlled by solid           6150 of part         3

 time...........................   1.89421E-07
 time step......................   3.00669E-09
 kinetic energy.................   1.88217E+05
 internal energy................   3.20000E-19
 spring and damper energy.......   1.60000E-19
 hourglass energy ..............   4.51713E-27
 system damping energy..........   0.00000E+00
 sliding interface energy.......   0.00000E+00
 external work..................   0.00000E+00
 eroded kinetic energy..........   0.00000E+00
 eroded internal energy.........   0.00000E+00
 eroded hourglass energy........   0.00000E+00
 total energy...................   1.88217E+05
 total energy / initial energy..   1.00000E+00
 energy ratio w/o eroded energy.   1.00000E+00
 global x velocity..............   4.51331E+05
 global y velocity..............  -1.26911E-28
 global z velocity..............   0.00000E+00
 time per zone cycle.(nanosec)..           148

  m a s s   p r o p e r t i e s   o f   b o d y
     total mass of body          = 1.24485715E-07
     x-coordinate of mass center =-2.78474842E+01
     y-coordinate of mass center = 1.54158975E-15
     z-coordinate of mass center = 1.25000000E-01

     inertia tensor of body
     row1=     1.2792E-05     8.1265E-20     6.9619E-16
     row2=     8.1265E-20     2.7298E-04     7.4446E-24
     row3=     6.9619E-16     7.4446E-24     2.8577E-04



     principal inertias of body
     i11 =     1.2792E-05
     i22 =     2.7298E-04
     i33 =     2.8577E-04

     principal directions
     row1=     1.0000E+00     0.0000E+00     2.5504E-12
     row2=     0.0000E+00     1.0000E+00     0.0000E+00
     row3=    -2.5504E-12     0.0000E+00     1.0000E+00

 ************************************************************



 dt of cycle      67 is controlled by solid           6150 of part         3

 time...........................   1.98441E-07
 time step......................   3.00669E-09
 kinetic energy.................   1.88217E+05
 internal energy................   3.20000E-19
 spring and damper energy.......   1.60000E-19
 hourglass energy ..............   4.74486E-27
 system damping energy..........   0.00000E+00
 sliding interface energy.......   0.00000E+00
 external work..................   0.00000E+00
 eroded kinetic energy..........   0.00000E+00
 eroded internal energy.........   0.00000E+00
 eroded hourglass energy........   0.00000E+00
 total energy...................   1.88217E+05
 total energy / initial energy..   1.00000E+00
 energy ratio w/o eroded energy.   1.00000E+00
 global x velocity..............   4.51331E+05
 global y velocity..............  -1.38998E-28
 global z velocity..............   0.00000E+00
 time per zone cycle.(nanosec)..           138

  m a s s   p r o p e r t i e s   o f   b o d y
     total mass of body          = 1.24485715E-07
     x-coordinate of mass center =-2.78434131E+01
     y-coordinate of mass center = 1.54158975E-15
     z-coordinate of mass center = 1.25000000E-01

     inertia tensor of body
     row1=     1.2792E-05     8.1266E-20     6.9609E-16
     row2=     8.1266E-20     2.7290E-04     7.4446E-24
     row3=     6.9609E-16     7.4446E-24     2.8569E-04



     principal inertias of body
     i11 =     1.2792E-05
     i22 =     2.7290E-04
     i33 =     2.8569E-04

     principal directions
     row1=     1.0000E+00     0.0000E+00     2.5507E-12
     row2=     0.0000E+00     1.0000E+00     0.0000E+00
     row3=    -2.5507E-12     0.0000E+00     1.0000E+00

 ************************************************************



 dt of cycle      70 is controlled by solid           6150 of part         3

 time...........................   2.07462E-07
 time step......................   3.00669E-09
 kinetic energy.................   1.88217E+05
 internal energy................   3.20000E-19
 spring and damper energy.......   1.60000E-19
 hourglass energy ..............   4.97474E-27
 system damping energy..........   0.00000E+00
 sliding interface energy.......   0.00000E+00
 external work..................   0.00000E+00
 eroded kinetic energy..........   0.00000E+00
 eroded internal energy.........   0.00000E+00
 eroded hourglass energy........   0.00000E+00
 total energy...................   1.88217E+05
 total energy / initial energy..   1.00000E+00
 energy ratio w/o eroded energy.   1.00000E+00
 global x velocity..............   4.51331E+05
 global y velocity..............  -3.02170E-29
 global z velocity..............   0.00000E+00
 time per zone cycle.(nanosec)..           139

  m a s s   p r o p e r t i e s   o f   b o d y
     total mass of body          = 1.24485715E-07
     x-coordinate of mass center =-2.78393421E+01
     y-coordinate of mass center = 1.54158975E-15
     z-coordinate of mass center = 1.25000000E-01

     inertia tensor of body
     row1=     1.2792E-05     8.0420E-20     6.9599E-16
     row2=     8.0420E-20     2.7282E-04     7.4446E-24
     row3=     6.9599E-16     7.4446E-24     2.8561E-04



     principal inertias of body
     i11 =     1.2792E-05
     i22 =     2.7282E-04
     i33 =     2.8561E-04

     principal directions
     row1=     1.0000E+00     0.0000E+00     2.5511E-12
     row2=     0.0000E+00     1.0000E+00     0.0000E+00
     row3=    -2.5511E-12     0.0000E+00     1.0000E+00

 ************************************************************



 dt of cycle      74 is controlled by solid           6150 of part         3

 time...........................   2.19488E-07
 time step......................   3.00669E-09
 kinetic energy.................   1.88217E+05
 internal energy................   3.20000E-19
 spring and damper energy.......   1.60000E-19
 hourglass energy ..............   5.27464E-27
 system damping energy..........   0.00000E+00
 sliding interface energy.......   0.00000E+00
 external work..................   0.00000E+00
 eroded kinetic energy..........   0.00000E+00
 eroded internal energy.........   0.00000E+00
 eroded hourglass energy........   0.00000E+00
 total energy...................   1.88217E+05
 total energy / initial energy..   1.00000E+00
 energy ratio w/o eroded energy.   1.00000E+00
 global x velocity..............   4.51331E+05
 global y velocity..............  -5.43906E-29
 global z velocity..............   0.00000E+00
 time per zone cycle.(nanosec)..           154

  m a s s   p r o p e r t i e s   o f   b o d y
     total mass of body          = 1.24485715E-07
     x-coordinate of mass center =-2.78339140E+01
     y-coordinate of mass center = 1.54158975E-15
     z-coordinate of mass center = 1.25000000E-01

     inertia tensor of body
     row1=     1.2792E-05     8.0421E-20     6.9585E-16
     row2=     8.0421E-20     2.7272E-04     7.4446E-24
     row3=     6.9585E-16     7.4446E-24     2.8550E-04



     principal inertias of body
     i11 =     1.2792E-05
     i22 =     2.7272E-04
     i33 =     2.8550E-04

     principal directions
     row1=     1.0000E+00     0.0000E+00     2.5516E-12
     row2=     0.0000E+00     1.0000E+00     0.0000E+00
     row3=    -2.5516E-12     0.0000E+00     1.0000E+00

 ************************************************************



 dt of cycle      77 is controlled by solid           6150 of part         3

 time...........................   2.28508E-07
 time step......................   3.00669E-09
 kinetic energy.................   1.88217E+05
 internal energy................   3.20000E-19
 spring and damper energy.......   1.60000E-19
 hourglass energy ..............   5.50266E-27
 system damping energy..........   0.00000E+00
 sliding interface energy.......   0.00000E+00
 external work..................   0.00000E+00
 eroded kinetic energy..........   0.00000E+00
 eroded internal energy.........   0.00000E+00
 eroded hourglass energy........   0.00000E+00
 total energy...................   1.88217E+05
 total energy / initial energy..   1.00000E+00
 energy ratio w/o eroded energy.   1.00000E+00
 global x velocity..............   4.51331E+05
 global y velocity..............   1.05759E-28
 global z velocity..............   0.00000E+00
 time per zone cycle.(nanosec)..           155

  m a s s   p r o p e r t i e s   o f   b o d y
     total mass of body          = 1.24485715E-07
     x-coordinate of mass center =-2.78298430E+01
     y-coordinate of mass center = 1.54158975E-15
     z-coordinate of mass center = 1.25000000E-01

     inertia tensor of body
     row1=     1.2792E-05     8.1268E-20     6.9575E-16
     row2=     8.1268E-20     2.7264E-04     7.4446E-24
     row3=     6.9575E-16     7.4446E-24     2.8543E-04



     principal inertias of body
     i11 =     1.2792E-05
     i22 =     2.7264E-04
     i33 =     2.8543E-04

     principal directions
     row1=     1.0000E+00     0.0000E+00     2.5520E-12
     row2=     0.0000E+00     1.0000E+00     0.0000E+00
     row3=    -2.5520E-12     0.0000E+00     1.0000E+00

 ************************************************************



 dt of cycle      80 is controlled by solid           6150 of part         3

 time...........................   2.37528E-07
 time step......................   3.00669E-09
 kinetic energy.................   1.88217E+05
 internal energy................   3.20000E-19
 spring and damper energy.......   1.60000E-19
 hourglass energy ..............   5.73079E-27
 system damping energy..........   0.00000E+00
 sliding interface energy.......   0.00000E+00
 external work..................   0.00000E+00
 eroded kinetic energy..........   0.00000E+00
 eroded internal energy.........   0.00000E+00
 eroded hourglass energy........   0.00000E+00
 total energy...................   1.88217E+05
 total energy / initial energy..   1.00000E+00
 energy ratio w/o eroded energy.   1.00000E+00
 global x velocity..............   4.51331E+05
 global y velocity..............  -6.04340E-29
 global z velocity..............   0.00000E+00
 time per zone cycle.(nanosec)..           142

  m a s s   p r o p e r t i e s   o f   b o d y
     total mass of body          = 1.24485715E-07
     x-coordinate of mass center =-2.78257720E+01
     y-coordinate of mass center = 1.54158975E-15
     z-coordinate of mass center = 1.25000000E-01

     inertia tensor of body
     row1=     1.2792E-05     8.1269E-20     6.9565E-16
     row2=     8.1269E-20     2.7256E-04     7.4446E-24
     row3=     6.9565E-16     7.4446E-24     2.8535E-04



     principal inertias of body
     i11 =     1.2792E-05
     i22 =     2.7256E-04
     i33 =     2.8535E-04

     principal directions
     row1=     1.0000E+00     0.0000E+00     2.5523E-12
     row2=     0.0000E+00     1.0000E+00     0.0000E+00
     row3=    -2.5523E-12     0.0000E+00     1.0000E+00

 ************************************************************



 dt of cycle      84 is controlled by solid           6150 of part         3

 time...........................   2.49555E-07
 time step......................   3.00669E-09
 kinetic energy.................   1.88217E+05
 internal energy................   3.20000E-19
 spring and damper energy.......   1.60000E-19
 hourglass energy ..............   6.02813E-27
 system damping energy..........   0.00000E+00
 sliding interface energy.......   0.00000E+00
 external work..................   0.00000E+00
 eroded kinetic energy..........   0.00000E+00
 eroded internal energy.........   0.00000E+00
 eroded hourglass energy........   0.00000E+00
 total energy...................   1.88217E+05
 total energy / initial energy..   1.00000E+00
 energy ratio w/o eroded energy.   1.00000E+00
 global x velocity..............   4.51331E+05
 global y velocity..............  -6.64773E-29
 global z velocity..............   0.00000E+00
 time per zone cycle.(nanosec)..           153

  m a s s   p r o p e r t i e s   o f   b o d y
     total mass of body          = 1.24485715E-07
     x-coordinate of mass center =-2.78203439E+01
     y-coordinate of mass center = 1.54158975E-15
     z-coordinate of mass center = 1.25000000E-01

     inertia tensor of body
     row1=     1.2792E-05     8.1270E-20     6.9551E-16
     row2=     8.1270E-20     2.7245E-04     7.4446E-24
     row3=     6.9551E-16     7.4446E-24     2.8524E-04



     principal inertias of body
     i11 =     1.2792E-05
     i22 =     2.7245E-04
     i33 =     2.8524E-04

     principal directions
     row1=     1.0000E+00     0.0000E+00     2.5528E-12
     row2=     0.0000E+00     1.0000E+00     0.0000E+00
     row3=    -2.5528E-12     0.0000E+00     1.0000E+00

 ************************************************************



 dt of cycle      87 is controlled by solid           6150 of part         3

 time...........................   2.58575E-07
 time step......................   3.00669E-09
 kinetic energy.................   1.88217E+05
 internal energy................   3.20000E-19
 spring and damper energy.......   1.60000E-19
 hourglass energy ..............   6.24911E-27
 system damping energy..........   0.00000E+00
 sliding interface energy.......   0.00000E+00
 external work..................   0.00000E+00
 eroded kinetic energy..........   0.00000E+00
 eroded internal energy.........   0.00000E+00
 eroded hourglass energy........   0.00000E+00
 total energy...................   1.88217E+05
 total energy / initial energy..   1.00000E+00
 energy ratio w/o eroded energy.   1.00000E+00
 global x velocity..............   4.51331E+05
 global y velocity..............  -1.08781E-28
 global z velocity..............   0.00000E+00
 time per zone cycle.(nanosec)..           157

  m a s s   p r o p e r t i e s   o f   b o d y
     total mass of body          = 1.24485715E-07
     x-coordinate of mass center =-2.78162729E+01
     y-coordinate of mass center = 1.54158975E-15
     z-coordinate of mass center = 1.25000000E-01

     inertia tensor of body
     row1=     1.2792E-05     8.1271E-20     6.9541E-16
     row2=     8.1271E-20     2.7238E-04     7.4446E-24
     row3=     6.9541E-16     7.4446E-24     2.8516E-04



     principal inertias of body
     i11 =     1.2792E-05
     i22 =     2.7238E-04
     i33 =     2.8516E-04

     principal directions
     row1=     1.0000E+00     0.0000E+00     2.5532E-12
     row2=     0.0000E+00     1.0000E+00     0.0000E+00
     row3=    -2.5532E-12     0.0000E+00     1.0000E+00

 ************************************************************



 dt of cycle      90 is controlled by solid           6150 of part         3

 time...........................   2.67595E-07
 time step......................   3.00669E-09
 kinetic energy.................   1.88217E+05
 internal energy................   3.20000E-19
 spring and damper energy.......   1.60000E-19
 hourglass energy ..............   6.47019E-27
 system damping energy..........   0.00000E+00
 sliding interface energy.......   0.00000E+00
 external work..................   0.00000E+00
 eroded kinetic energy..........   0.00000E+00
 eroded internal energy.........   0.00000E+00
 eroded hourglass energy........   0.00000E+00
 total energy...................   1.88217E+05
 total energy / initial energy..   1.00000E+00
 energy ratio w/o eroded energy.   1.00000E+00
 global x velocity..............   4.51331E+05
 global y velocity..............  -4.83472E-29
 global z velocity..............   0.00000E+00
 time per zone cycle.(nanosec)..           145

  m a s s   p r o p e r t i e s   o f   b o d y
     total mass of body          = 1.24485715E-07
     x-coordinate of mass center =-2.78122018E+01
     y-coordinate of mass center = 1.54158975E-15
     z-coordinate of mass center = 1.25000000E-01

     inertia tensor of body
     row1=     1.2792E-05     8.1272E-20     6.9531E-16
     row2=     8.1272E-20     2.7230E-04     7.4446E-24
     row3=     6.9531E-16     7.4446E-24     2.8509E-04



     principal inertias of body
     i11 =     1.2792E-05
     i22 =     2.7230E-04
     i33 =     2.8509E-04

     principal directions
     row1=     1.0000E+00     0.0000E+00     2.5535E-12
     row2=     0.0000E+00     1.0000E+00     0.0000E+00
     row3=    -2.5535E-12     0.0000E+00     1.0000E+00

 ************************************************************



 dt of cycle      94 is controlled by solid           6150 of part         3

 time...........................   2.79622E-07
 time step......................   3.00669E-09
 kinetic energy.................   1.88217E+05
 internal energy................   3.20000E-19
 spring and damper energy.......   1.60000E-19
 hourglass energy ..............   6.76395E-27
 system damping energy..........   0.00000E+00
 sliding interface energy.......   0.00000E+00
 external work..................   0.00000E+00
 eroded kinetic energy..........   0.00000E+00
 eroded internal energy.........   0.00000E+00
 eroded hourglass energy........   0.00000E+00
 total energy...................   1.88217E+05
 total energy / initial energy..   1.00000E+00
 energy ratio w/o eroded energy.   1.00000E+00
 global x velocity..............   4.51331E+05
 global y velocity..............   2.35692E-28
 global z velocity..............   0.00000E+00
 time per zone cycle.(nanosec)..           153

  m a s s   p r o p e r t i e s   o f   b o d y
     total mass of body          = 1.24485715E-07
     x-coordinate of mass center =-2.78067738E+01
     y-coordinate of mass center = 1.54158975E-15
     z-coordinate of mass center = 1.25000000E-01

     inertia tensor of body
     row1=     1.2792E-05     8.0426E-20     6.9517E-16
     row2=     8.0426E-20     2.7219E-04     7.4446E-24
     row3=     6.9517E-16     7.4446E-24     2.8498E-04



     principal inertias of body
     i11 =     1.2792E-05
     i22 =     2.7219E-04
     i33 =     2.8498E-04

     principal directions
     row1=     1.0000E+00     0.0000E+00     2.5540E-12
     row2=     0.0000E+00     1.0000E+00     0.0000E+00
     row3=    -2.5540E-12     0.0000E+00     1.0000E+00

 ************************************************************



 dt of cycle      97 is controlled by solid           6150 of part         3

 time...........................   2.88642E-07
 time step......................   3.00669E-09
 kinetic energy.................   1.88217E+05
 internal energy................   3.20000E-19
 spring and damper energy.......   1.60000E-19
 hourglass energy ..............   6.98157E-27
 system damping energy..........   0.00000E+00
 sliding interface energy.......   0.00000E+00
 external work..................   0.00000E+00
 eroded kinetic energy..........   0.00000E+00
 eroded internal energy.........   0.00000E+00
 eroded hourglass energy........   0.00000E+00
 total energy...................   1.88217E+05
 total energy / initial energy..   1.00000E+00
 energy ratio w/o eroded energy.   1.00000E+00
 global x velocity..............   4.51331E+05
 global y velocity..............  -2.90083E-28
 global z velocity..............   0.00000E+00
 time per zone cycle.(nanosec)..           155

  m a s s   p r o p e r t i e s   o f   b o d y
     total mass of body          = 1.24485715E-07
     x-coordinate of mass center =-2.78027028E+01
     y-coordinate of mass center = 1.54158975E-15
     z-coordinate of mass center = 1.25000000E-01

     inertia tensor of body
     row1=     1.2792E-05     8.1274E-20     6.9507E-16
     row2=     8.1274E-20     2.7211E-04     7.4446E-24
     row3=     6.9507E-16     7.4446E-24     2.8490E-04



     principal inertias of body
     i11 =     1.2792E-05
     i22 =     2.7211E-04
     i33 =     2.8490E-04

     principal directions
     row1=     1.0000E+00     0.0000E+00     2.5544E-12
     row2=     0.0000E+00     1.0000E+00     0.0000E+00
     row3=    -2.5544E-12     0.0000E+00     1.0000E+00

 ************************************************************



 dt of cycle     100 is controlled by solid           6150 of part         3

 time...........................   2.97662E-07
 time step......................   3.00669E-09
 kinetic energy.................   1.88217E+05
 internal energy................   3.20000E-19
 spring and damper energy.......   1.60000E-19
 hourglass energy ..............   7.19978E-27
 system damping energy..........   0.00000E+00
 sliding interface energy.......   0.00000E+00
 external work..................   0.00000E+00
 eroded kinetic energy..........   0.00000E+00
 eroded internal energy.........   0.00000E+00
 eroded hourglass energy........   0.00000E+00
 total energy...................   1.88217E+05
 total energy / initial energy..   1.00000E+00
 energy ratio w/o eroded energy.   1.00000E+00
 global x velocity..............   4.51331E+05
 global y velocity..............  -2.90083E-28
 global z velocity..............   0.00000E+00
 time per zone cycle.(nanosec)..           142

  m a s s   p r o p e r t i e s   o f   b o d y
     total mass of body          = 1.24485715E-07
     x-coordinate of mass center =-2.77986317E+01
     y-coordinate of mass center = 1.54158975E-15
     z-coordinate of mass center = 1.25000000E-01

     inertia tensor of body
     row1=     1.2792E-05     8.1274E-20     6.9497E-16
     row2=     8.1274E-20     2.7204E-04     7.4446E-24
     row3=     6.9497E-16     7.4446E-24     2.8482E-04



     principal inertias of body
     i11 =     1.2792E-05
     i22 =     2.7204E-04
     i33 =     2.8482E-04

     principal directions
     row1=     1.0000E+00     0.0000E+00     2.5547E-12
     row2=     0.0000E+00     1.0000E+00     0.0000E+00
     row3=    -2.5547E-12     0.0000E+00     1.0000E+00

 ************************************************************



 dt of cycle     104 is controlled by solid           6150 of part         3

 time...........................   3.09689E-07
 time step......................   3.00669E-09
 kinetic energy.................   1.88217E+05
 internal energy................   3.20000E-19
 spring and damper energy.......   1.60000E-19
 hourglass energy ..............   7.48768E-27
 system damping energy..........   0.00000E+00
 sliding interface energy.......   0.00000E+00
 external work..................   0.00000E+00
 eroded kinetic energy..........   0.00000E+00
 eroded internal energy.........   0.00000E+00
 eroded hourglass energy........   0.00000E+00
 total energy...................   1.88217E+05
 total energy / initial energy..   1.00000E+00
 energy ratio w/o eroded energy.   1.00000E+00
 global x velocity..............   4.51331E+05
 global y velocity..............  -1.20868E-29
 global z velocity..............   0.00000E+00
 time per zone cycle.(nanosec)..           152

  m a s s   p r o p e r t i e s   o f   b o d y
     total mass of body          = 1.24485715E-07
     x-coordinate of mass center =-2.77932037E+01
     y-coordinate of mass center = 1.54158975E-15
     z-coordinate of mass center = 1.25000000E-01

     inertia tensor of body
     row1=     1.2792E-05     8.1275E-20     6.9483E-16
     row2=     8.1275E-20     2.7193E-04     7.4446E-24
     row3=     6.9483E-16     7.4446E-24     2.8472E-04



     principal inertias of body
     i11 =     1.2792E-05
     i22 =     2.7193E-04
     i33 =     2.8472E-04

     principal directions
     row1=     1.0000E+00     0.0000E+00     2.5552E-12
     row2=     0.0000E+00     1.0000E+00     0.0000E+00
     row3=    -2.5552E-12     0.0000E+00     1.0000E+00

 ************************************************************



 dt of cycle     107 is controlled by solid           6150 of part         3

 time...........................   3.18709E-07
 time step......................   3.00669E-09
 kinetic energy.................   1.88217E+05
 internal energy................   3.20000E-19
 spring and damper energy.......   1.60000E-19
 hourglass energy ..............   7.70207E-27
 system damping energy..........   0.00000E+00
 sliding interface energy.......   0.00000E+00
 external work..................   0.00000E+00
 eroded kinetic energy..........   0.00000E+00
 eroded internal energy.........   0.00000E+00
 eroded hourglass energy........   0.00000E+00
 total energy...................   1.88217E+05
 total energy / initial energy..   1.00000E+00
 energy ratio w/o eroded energy.   1.00000E+00
 global x velocity..............   4.51331E+05
 global y velocity..............  -3.26343E-28
 global z velocity..............   0.00000E+00
 time per zone cycle.(nanosec)..           153

  m a s s   p r o p e r t i e s   o f   b o d y
     total mass of body          = 1.24485715E-07
     x-coordinate of mass center =-2.77891326E+01
     y-coordinate of mass center = 1.54158975E-15
     z-coordinate of mass center = 1.25000000E-01

     inertia tensor of body
     row1=     1.2792E-05     8.0429E-20     6.9473E-16
     row2=     8.0429E-20     2.7185E-04     7.4446E-24
     row3=     6.9473E-16     7.4446E-24     2.8464E-04



     principal inertias of body
     i11 =     1.2792E-05
     i22 =     2.7185E-04
     i33 =     2.8464E-04

     principal directions
     row1=     1.0000E+00     0.0000E+00     2.5556E-12
     row2=     0.0000E+00     1.0000E+00     0.0000E+00
     row3=    -2.5556E-12     0.0000E+00     1.0000E+00

 ************************************************************



 dt of cycle     110 is controlled by solid           6150 of part         3

 time...........................   3.27729E-07
 time step......................   3.00669E-09
 kinetic energy.................   1.88217E+05
 internal energy................   3.20000E-19
 spring and damper energy.......   1.60000E-19
 hourglass energy ..............   7.92072E-27
 system damping energy..........   0.00000E+00
 sliding interface energy.......   0.00000E+00
 external work..................   0.00000E+00
 eroded kinetic energy..........   0.00000E+00
 eroded internal energy.........   0.00000E+00
 eroded hourglass energy........   0.00000E+00
 total energy...................   1.88217E+05
 total energy / initial energy..   1.00000E+00
 energy ratio w/o eroded energy.   1.00000E+00
 global x velocity..............   4.51331E+05
 global y velocity..............  -2.90083E-28
 global z velocity..............   0.00000E+00
 time per zone cycle.(nanosec)..           139

  m a s s   p r o p e r t i e s   o f   b o d y
     total mass of body          = 1.24485715E-07
     x-coordinate of mass center =-2.77850616E+01
     y-coordinate of mass center = 1.54158975E-15
     z-coordinate of mass center = 1.25000000E-01

     inertia tensor of body
     row1=     1.2792E-05     8.0430E-20     6.9463E-16
     row2=     8.0430E-20     2.7178E-04     7.4446E-24
     row3=     6.9463E-16     7.4446E-24     2.8456E-04



     principal inertias of body
     i11 =     1.2792E-05
     i22 =     2.7178E-04
     i33 =     2.8456E-04

     principal directions
     row1=     1.0000E+00     0.0000E+00     2.5559E-12
     row2=     0.0000E+00     1.0000E+00     0.0000E+00
     row3=    -2.5559E-12     0.0000E+00     1.0000E+00

 ************************************************************



 dt of cycle     114 is controlled by solid           6150 of part         3

 time...........................   3.39756E-07
 time step......................   3.00669E-09
 kinetic energy.................   1.88217E+05
 internal energy................   3.20000E-19
 spring and damper energy.......   1.60000E-19
 hourglass energy ..............   8.14943E-27
 system damping energy..........   0.00000E+00
 sliding interface energy.......   0.00000E+00
 external work..................   0.00000E+00
 eroded kinetic energy..........   0.00000E+00
 eroded internal energy.........   0.00000E+00
 eroded hourglass energy........   0.00000E+00
 total energy...................   1.88217E+05
 total energy / initial energy..   1.00000E+00
 energy ratio w/o eroded energy.   1.00000E+00
 global x velocity..............   4.51331E+05
 global y velocity..............  -2.17562E-28
 global z velocity..............   0.00000E+00
 time per zone cycle.(nanosec)..           147

  m a s s   p r o p e r t i e s   o f   b o d y
     total mass of body          = 1.24485715E-07
     x-coordinate of mass center =-2.77796335E+01
     y-coordinate of mass center = 1.54158975E-15
     z-coordinate of mass center = 1.25000000E-01

     inertia tensor of body
     row1=     1.2792E-05     8.0431E-20     6.9449E-16
     row2=     8.0431E-20     2.7167E-04     7.4446E-24
     row3=     6.9449E-16     7.4446E-24     2.8446E-04



     principal inertias of body
     i11 =     1.2792E-05
     i22 =     2.7167E-04
     i33 =     2.8446E-04

     principal directions
     row1=     1.0000E+00     0.0000E+00     2.5564E-12
     row2=     0.0000E+00     1.0000E+00     0.0000E+00
     row3=    -2.5564E-12     0.0000E+00     1.0000E+00

 ************************************************************



 dt of cycle     117 is controlled by solid           6150 of part         3

 time...........................   3.48776E-07
 time step......................   3.00669E-09
 kinetic energy.................   1.88217E+05
 internal energy................   3.20000E-19
 spring and damper energy.......   1.60000E-19
 hourglass energy ..............   8.37439E-27
 system damping energy..........   0.00000E+00
 sliding interface energy.......   0.00000E+00
 external work..................   0.00000E+00
 eroded kinetic energy..........   0.00000E+00
 eroded internal energy.........   0.00000E+00
 eroded hourglass energy........   0.00000E+00
 total energy...................   1.88217E+05
 total energy / initial energy..   1.00000E+00
 energy ratio w/o eroded energy.   1.00000E+00
 global x velocity..............   4.51331E+05
 global y velocity..............  -1.45041E-28
 global z velocity..............   0.00000E+00
 time per zone cycle.(nanosec)..           145

  m a s s   p r o p e r t i e s   o f   b o d y
     total mass of body          = 1.24485715E-07
     x-coordinate of mass center =-2.77755625E+01
     y-coordinate of mass center = 1.54158975E-15
     z-coordinate of mass center = 1.25000000E-01

     inertia tensor of body
     row1=     1.2792E-05     8.1279E-20     6.9439E-16
     row2=     8.1279E-20     2.7159E-04     7.4446E-24
     row3=     6.9439E-16     7.4446E-24     2.8438E-04



     principal inertias of body
     i11 =     1.2792E-05
     i22 =     2.7159E-04
     i33 =     2.8438E-04

     principal directions
     row1=     1.0000E+00     0.0000E+00     2.5568E-12
     row2=     0.0000E+00     1.0000E+00     0.0000E+00
     row3=    -2.5568E-12     0.0000E+00     1.0000E+00

 ************************************************************



 dt of cycle     120 is controlled by solid           6150 of part         3

 time...........................   3.57796E-07
 time step......................   3.00669E-09
 kinetic energy.................   1.88217E+05
 internal energy................   3.20000E-19
 spring and damper energy.......   1.60000E-19
 hourglass energy ..............   8.59746E-27
 system damping energy..........   0.00000E+00
 sliding interface energy.......   0.00000E+00
 external work..................   0.00000E+00
 eroded kinetic energy..........   0.00000E+00
 eroded internal energy.........   0.00000E+00
 eroded hourglass energy........   0.00000E+00
 total energy...................   1.88217E+05
 total energy / initial energy..   1.00000E+00
 energy ratio w/o eroded energy.   1.00000E+00
 global x velocity..............   4.51331E+05
 global y velocity..............  -9.66943E-29
 global z velocity..............   0.00000E+00
 time per zone cycle.(nanosec)..           132

  m a s s   p r o p e r t i e s   o f   b o d y
     total mass of body          = 1.24485715E-07
     x-coordinate of mass center =-2.77714915E+01
     y-coordinate of mass center = 1.54158975E-15
     z-coordinate of mass center = 1.25000000E-01

     inertia tensor of body
     row1=     1.2792E-05     8.0433E-20     6.9429E-16
     row2=     8.0433E-20     2.7152E-04     7.4446E-24
     row3=     6.9429E-16     7.4446E-24     2.8430E-04



     principal inertias of body
     i11 =     1.2792E-05
     i22 =     2.7152E-04
     i33 =     2.8430E-04

     principal directions
     row1=     1.0000E+00     0.0000E+00     2.5571E-12
     row2=     0.0000E+00     1.0000E+00     0.0000E+00
     row3=    -2.5571E-12     0.0000E+00     1.0000E+00

 ************************************************************



 dt of cycle     124 is controlled by solid           6150 of part         3

 time...........................   3.69823E-07
 time step......................   3.00669E-09
 kinetic energy.................   1.88217E+05
 internal energy................   3.20000E-19
 spring and damper energy.......   1.60000E-19
 hourglass energy ..............   8.89333E-27
 system damping energy..........   0.00000E+00
 sliding interface energy.......   0.00000E+00
 external work..................   0.00000E+00
 eroded kinetic energy..........   0.00000E+00
 eroded internal energy.........   0.00000E+00
 eroded hourglass energy........   0.00000E+00
 total energy...................   1.88217E+05
 total energy / initial energy..   1.00000E+00
 energy ratio w/o eroded energy.   1.00000E+00
 global x velocity..............   4.51331E+05
 global y velocity..............  -5.55992E-28
 global z velocity..............   0.00000E+00
 time per zone cycle.(nanosec)..           141

  m a s s   p r o p e r t i e s   o f   b o d y
     total mass of body          = 1.24485715E-07
     x-coordinate of mass center =-2.77660634E+01
     y-coordinate of mass center = 1.54158975E-15
     z-coordinate of mass center = 1.25000000E-01

     inertia tensor of body
     row1=     1.2792E-05     8.0434E-20     6.9415E-16
     row2=     8.0434E-20     2.7141E-04     7.4446E-24
     row3=     6.9415E-16     7.4446E-24     2.8420E-04



     principal inertias of body
     i11 =     1.2792E-05
     i22 =     2.7141E-04
     i33 =     2.8420E-04

     principal directions
     row1=     1.0000E+00     0.0000E+00     2.5576E-12
     row2=     0.0000E+00     1.0000E+00     0.0000E+00
     row3=    -2.5576E-12     0.0000E+00     1.0000E+00

 ************************************************************



 dt of cycle     127 is controlled by solid           6150 of part         3

 time...........................   3.78843E-07
 time step......................   3.00669E-09
 kinetic energy.................   1.88217E+05
 internal energy................   3.20000E-19
 spring and damper energy.......   1.60000E-19
 hourglass energy ..............   9.11441E-27
 system damping energy..........   0.00000E+00
 sliding interface energy.......   0.00000E+00
 external work..................   0.00000E+00
 eroded kinetic energy..........   0.00000E+00
 eroded internal energy.........   0.00000E+00
 eroded hourglass energy........   0.00000E+00
 total energy...................   1.88217E+05
 total energy / initial energy..   1.00000E+00
 energy ratio w/o eroded energy.   1.00000E+00
 global x velocity..............   4.51331E+05
 global y velocity..............  -1.93389E-28
 global z velocity..............   0.00000E+00
 time per zone cycle.(nanosec)..           141

  m a s s   p r o p e r t i e s   o f   b o d y
     total mass of body          = 1.24485715E-07
     x-coordinate of mass center =-2.77619924E+01
     y-coordinate of mass center = 1.54158975E-15
     z-coordinate of mass center = 1.25000000E-01

     inertia tensor of body
     row1=     1.2792E-05     8.0434E-20     6.9405E-16
     row2=     8.0434E-20     2.7133E-04     7.4446E-24
     row3=     6.9405E-16     7.4446E-24     2.8412E-04



     principal inertias of body
     i11 =     1.2792E-05
     i22 =     2.7133E-04
     i33 =     2.8412E-04

     principal directions
     row1=     1.0000E+00     0.0000E+00     2.5580E-12
     row2=     0.0000E+00     1.0000E+00     0.0000E+00
     row3=    -2.5580E-12     0.0000E+00     1.0000E+00

 ************************************************************



 dt of cycle     130 is controlled by solid           6150 of part         3

 time...........................   3.87863E-07
 time step......................   3.00669E-09
 kinetic energy.................   1.88217E+05
 internal energy................   3.20000E-19
 spring and damper energy.......   1.60000E-19
 hourglass energy ..............   9.33227E-27
 system damping energy..........   0.00000E+00
 sliding interface energy.......   0.00000E+00
 external work..................   0.00000E+00
 eroded kinetic energy..........   0.00000E+00
 eroded internal energy.........   0.00000E+00
 eroded hourglass energy........   0.00000E+00
 total energy...................   1.88217E+05
 total energy / initial energy..   1.00000E+00
 energy ratio w/o eroded energy.   1.00000E+00
 global x velocity..............   4.51331E+05
 global y velocity..............  -2.65909E-28
 global z velocity..............   0.00000E+00
 time per zone cycle.(nanosec)..           153

  m a s s   p r o p e r t i e s   o f   b o d y
     total mass of body          = 1.24485715E-07
     x-coordinate of mass center =-2.77579213E+01
     y-coordinate of mass center = 1.54158975E-15
     z-coordinate of mass center = 1.25000000E-01

     inertia tensor of body
     row1=     1.2792E-05     8.1282E-20     6.9395E-16
     row2=     8.1282E-20     2.7126E-04     7.4446E-24
     row3=     6.9395E-16     7.4446E-24     2.8404E-04



     principal inertias of body
     i11 =     1.2792E-05
     i22 =     2.7126E-04
     i33 =     2.8404E-04

     principal directions
     row1=     1.0000E+00     0.0000E+00     2.5583E-12
     row2=     0.0000E+00     1.0000E+00     0.0000E+00
     row3=    -2.5583E-12     0.0000E+00     1.0000E+00

 ************************************************************



 dt of cycle     134 is controlled by solid           6150 of part         3

 time...........................   3.99890E-07
 time step......................   3.00669E-09
 kinetic energy.................   1.88217E+05
 internal energy................   3.20000E-19
 spring and damper energy.......   1.60000E-19
 hourglass energy ..............   9.61900E-27
 system damping energy..........   0.00000E+00
 sliding interface energy.......   0.00000E+00
 external work..................   0.00000E+00
 eroded kinetic energy..........   0.00000E+00
 eroded internal energy.........   0.00000E+00
 eroded hourglass energy........   0.00000E+00
 total energy...................   1.88217E+05
 total energy / initial energy..   1.00000E+00
 energy ratio w/o eroded energy.   1.00000E+00
 global x velocity..............   4.51331E+05
 global y velocity..............  -3.86777E-28
 global z velocity..............   0.00000E+00
 time per zone cycle.(nanosec)..           145

  m a s s   p r o p e r t i e s   o f   b o d y
     total mass of body          = 1.24485715E-07
     x-coordinate of mass center =-2.77524933E+01
     y-coordinate of mass center = 1.54158975E-15
     z-coordinate of mass center = 1.25000000E-01

     inertia tensor of body
     row1=     1.2792E-05     8.1283E-20     6.9381E-16
     row2=     8.1283E-20     2.7115E-04     7.4446E-24
     row3=     6.9381E-16     7.4446E-24     2.8394E-04



     principal inertias of body
     i11 =     1.2792E-05
     i22 =     2.7115E-04
     i33 =     2.8394E-04

     principal directions
     row1=     1.0000E+00     0.0000E+00     2.5588E-12
     row2=     0.0000E+00     1.0000E+00     0.0000E+00
     row3=    -2.5588E-12     0.0000E+00     1.0000E+00

 ************************************************************



 dt of cycle     137 is controlled by solid           6150 of part         3

 time...........................   4.08910E-07
 time step......................   3.00669E-09
 kinetic energy.................   1.88217E+05
 internal energy................   3.20000E-19
 spring and damper energy.......   1.60000E-19
 hourglass energy ..............   9.83654E-27
 system damping energy..........   0.00000E+00
 sliding interface energy.......   0.00000E+00
 external work..................   0.00000E+00
 eroded kinetic energy..........   0.00000E+00
 eroded internal energy.........   0.00000E+00
 eroded hourglass energy........   0.00000E+00
 total energy...................   1.88217E+05
 total energy / initial energy..   1.00000E+00
 energy ratio w/o eroded energy.   1.00000E+00
 global x velocity..............   4.51331E+05
 global y velocity..............  -3.38430E-28
 global z velocity..............   0.00000E+00
 time per zone cycle.(nanosec)..           141

  m a s s   p r o p e r t i e s   o f   b o d y
     total mass of body          = 1.24485715E-07
     x-coordinate of mass center =-2.77484223E+01
     y-coordinate of mass center = 1.54158975E-15
     z-coordinate of mass center = 1.25000000E-01

     inertia tensor of body
     row1=     1.2792E-05     8.1284E-20     6.9371E-16
     row2=     8.1284E-20     2.7108E-04     7.4446E-24
     row3=     6.9371E-16     7.4446E-24     2.8386E-04



     principal inertias of body
     i11 =     1.2792E-05
     i22 =     2.7108E-04
     i33 =     2.8386E-04

     principal directions
     row1=     1.0000E+00     0.0000E+00     2.5592E-12
     row2=     0.0000E+00     1.0000E+00     0.0000E+00
     row3=    -2.5592E-12     0.0000E+00     1.0000E+00

 ************************************************************



 dt of cycle     140 is controlled by solid           6150 of part         3

 time...........................   4.17930E-07
 time step......................   3.00669E-09
 kinetic energy.................   1.88217E+05
 internal energy................   3.20000E-19
 spring and damper energy.......   1.60000E-19
 hourglass energy ..............   1.00485E-26
 system damping energy..........   0.00000E+00
 sliding interface energy.......   0.00000E+00
 external work..................   0.00000E+00
 eroded kinetic energy..........   0.00000E+00
 eroded internal energy.........   0.00000E+00
 eroded hourglass energy........   0.00000E+00
 total energy...................   1.88217E+05
 total energy / initial energy..   1.00000E+00
 energy ratio w/o eroded energy.   1.00000E+00
 global x velocity..............   4.51331E+05
 global y velocity..............   2.41736E-29
 global z velocity..............   0.00000E+00
 time per zone cycle.(nanosec)..           133

  m a s s   p r o p e r t i e s   o f   b o d y
     total mass of body          = 1.24485715E-07
     x-coordinate of mass center =-2.77443512E+01
     y-coordinate of mass center = 1.54158975E-15
     z-coordinate of mass center = 1.25000000E-01

     inertia tensor of body
     row1=     1.2792E-05     8.0438E-20     6.9361E-16
     row2=     8.0438E-20     2.7100E-04     7.4446E-24
     row3=     6.9361E-16     7.4446E-24     2.8379E-04



     principal inertias of body
     i11 =     1.2792E-05
     i22 =     2.7100E-04
     i33 =     2.8379E-04

     principal directions
     row1=     1.0000E+00     0.0000E+00     2.5595E-12
     row2=     0.0000E+00     1.0000E+00     0.0000E+00
     row3=    -2.5595E-12     0.0000E+00     1.0000E+00

 ************************************************************



 dt of cycle     144 is controlled by solid           6150 of part         3

 time...........................   4.29957E-07
 time step......................   3.00669E-09
 kinetic energy.................   1.88217E+05
 internal energy................   3.20000E-19
 spring and damper energy.......   1.60000E-19
 hourglass energy ..............   1.02645E-26
 system damping energy..........   0.00000E+00
 sliding interface energy.......   0.00000E+00
 external work..................   0.00000E+00
 eroded kinetic energy..........   0.00000E+00
 eroded internal energy.........   0.00000E+00
 eroded hourglass energy........   0.00000E+00
 total energy...................   1.88217E+05
 total energy / initial energy..   1.00000E+00
 energy ratio w/o eroded energy.   1.00000E+00
 global x velocity..............   4.51331E+05
 global y velocity..............  -5.37862E-28
 global z velocity..............   0.00000E+00
 time per zone cycle.(nanosec)..           143

  m a s s   p r o p e r t i e s   o f   b o d y
     total mass of body          = 1.24485715E-07
     x-coordinate of mass center =-2.77389232E+01
     y-coordinate of mass center = 1.54158975E-15
     z-coordinate of mass center = 1.25000000E-01

     inertia tensor of body
     row1=     1.2792E-05     8.0439E-20     6.9347E-16
     row2=     8.0439E-20     2.7089E-04     7.4446E-24
     row3=     6.9347E-16     7.4446E-24     2.8368E-04



     principal inertias of body
     i11 =     1.2792E-05
     i22 =     2.7089E-04
     i33 =     2.8368E-04

     principal directions
     row1=     1.0000E+00     0.0000E+00     2.5600E-12
     row2=     0.0000E+00     1.0000E+00     0.0000E+00
     row3=    -2.5600E-12     0.0000E+00     1.0000E+00

 ************************************************************



 dt of cycle     147 is controlled by solid           6150 of part         3

 time...........................   4.38977E-07
 time step......................   3.00669E-09
 kinetic energy.................   1.88217E+05
 internal energy................   3.20000E-19
 spring and damper energy.......   1.60000E-19
 hourglass energy ..............   1.04815E-26
 system damping energy..........   0.00000E+00
 sliding interface energy.......   0.00000E+00
 external work..................   0.00000E+00
 eroded kinetic energy..........   0.00000E+00
 eroded internal energy.........   0.00000E+00
 eroded hourglass energy........   0.00000E+00
 total energy...................   1.88217E+05
 total energy / initial energy..   1.00000E+00
 energy ratio w/o eroded energy.   1.00000E+00
 global x velocity..............   4.51331E+05
 global y velocity..............  -2.10008E-28
 global z velocity..............   0.00000E+00
 time per zone cycle.(nanosec)..           143

  m a s s   p r o p e r t i e s   o f   b o d y
[...]
     i33 =     2.2819E-04

     principal directions
     row1=     1.0000E+00    -2.9265E-03     1.1054E-03
     row2=     2.9295E-03     9.9999E-01    -2.6633E-03
     row3=    -1.0976E-03     2.6666E-03     1.0000E+00

 ************************************************************



 dt of cycle    9414 is controlled by solid           6292 of part         3

 time...........................   2.18982E-05
 time step......................   2.93611E-09
 kinetic energy.................   2.29162E+05
 internal energy................   8.79615E+03
 spring and damper energy.......   1.60000E-19
 hourglass energy ..............   7.65222E+03
 system damping energy..........   0.00000E+00
 sliding interface energy.......   1.60645E+04
 external work..................   0.00000E+00
 eroded kinetic energy..........   1.10478E+05
 eroded internal energy.........   3.69753E+04
 eroded hourglass energy........   6.89692E+03
 total energy...................   2.61675E+05
 total energy / initial energy..   1.39028E+00
 energy ratio w/o eroded energy.   5.70218E-01
 global x velocity..............   4.55088E+05
 global y velocity..............  -8.04195E+03
 global z velocity..............   1.25343E+04
 time per zone cycle.(nanosec)..           287

  m a s s   p r o p e r t i e s   o f   b o d y
     total mass of body          = 1.29005857E-07
     x-coordinate of mass center =-1.86125191E+01
     y-coordinate of mass center = 1.06615292E-01
     z-coordinate of mass center = 3.67926195E-01

     inertia tensor of body
     row1=     2.8401E-05    -5.0408E-07     2.1873E-07
     row2=    -5.0408E-07     2.0051E-04    -7.3235E-08
     row3=     2.1873E-07    -7.3235E-08     2.2820E-04



     principal inertias of body
     i11 =     2.8399E-05
     i22 =     2.0051E-04
     i33 =     2.2820E-04

     principal directions
     row1=     1.0000E+00    -2.9255E-03     1.1015E-03
     row2=     2.9284E-03     9.9999E-01    -2.6642E-03
     row3=    -1.0937E-03     2.6674E-03     1.0000E+00

 ************************************************************



 dt of cycle    9418 is controlled by solid           6292 of part         3

 time...........................   2.19100E-05
 time step......................   2.93612E-09
 kinetic energy.................   2.29143E+05
 internal energy................   8.81070E+03
 spring and damper energy.......   1.60000E-19
 hourglass energy ..............   7.65364E+03
 system damping energy..........   0.00000E+00
 sliding interface energy.......   1.60690E+04
 external work..................   0.00000E+00
 eroded kinetic energy..........   1.10478E+05
 eroded internal energy.........   3.70034E+04
 eroded hourglass energy........   6.90156E+03
 total energy...................   2.61676E+05
 total energy / initial energy..   1.39029E+00
 energy ratio w/o eroded energy.   5.70049E-01
 global x velocity..............   4.55163E+05
 global y velocity..............  -8.03591E+03
 global z velocity..............   1.25385E+04
 time per zone cycle.(nanosec)..           318

  m a s s   p r o p e r t i e s   o f   b o d y
     total mass of body          = 1.29065256E-07
     x-coordinate of mass center =-1.85981339E+01
     y-coordinate of mass center = 9.92167299E-02
     z-coordinate of mass center = 3.67956407E-01

     inertia tensor of body
     row1=     2.8432E-05    -4.8492E-07     2.1797E-07
     row2=    -4.8492E-07     2.0054E-04    -7.3539E-08
     row3=     2.1797E-07    -7.3539E-08     2.2827E-04



     principal inertias of body
     i11 =     2.8431E-05
     i22 =     2.0054E-04
     i33 =     2.2827E-04

     principal directions
     row1=     1.0000E+00    -2.8141E-03     1.0972E-03
     row2=     2.8170E-03     9.9999E-01    -2.6714E-03
     row3=    -1.0897E-03     2.6744E-03     1.0000E+00

 ************************************************************



 dt of cycle    9421 is controlled by solid           6292 of part         3

 time...........................   2.19188E-05
 time step......................   2.93612E-09
 kinetic energy.................   2.29130E+05
 internal energy................   8.82153E+03
 spring and damper energy.......   1.60000E-19
 hourglass energy ..............   7.65473E+03
 system damping energy..........   0.00000E+00
 sliding interface energy.......   1.60697E+04
 external work..................   0.00000E+00
 eroded kinetic energy..........   1.10478E+05
 eroded internal energy.........   3.70034E+04
 eroded hourglass energy........   6.90156E+03
 total energy...................   2.61676E+05
 total energy / initial energy..   1.39029E+00
 energy ratio w/o eroded energy.   5.70049E-01
 global x velocity..............   4.55163E+05
 global y velocity..............  -7.99417E+03
 global z velocity..............   1.25418E+04
 time per zone cycle.(nanosec)..           311

  m a s s   p r o p e r t i e s   o f   b o d y
     total mass of body          = 1.29065256E-07
     x-coordinate of mass center =-1.85942669E+01
     y-coordinate of mass center = 9.91486290E-02
     z-coordinate of mass center = 3.68062946E-01

     inertia tensor of body
     row1=     2.8445E-05    -4.8472E-07     2.1719E-07
     row2=    -4.8472E-07     2.0055E-04    -7.3595E-08
     row3=     2.1719E-07    -7.3595E-08     2.2829E-04



     principal inertias of body
     i11 =     2.8443E-05
     i22 =     2.0055E-04
     i33 =     2.2829E-04

     principal directions
     row1=     1.0000E+00    -2.8130E-03     1.0933E-03
     row2=     2.8160E-03     9.9999E-01    -2.6722E-03
     row3=    -1.0857E-03     2.6752E-03     1.0000E+00

 ************************************************************



 dt of cycle    9424 is controlled by solid           6292 of part         3

 time...........................   2.19276E-05
 time step......................   2.93613E-09
 kinetic energy.................   2.29121E+05
 internal energy................   8.83246E+03
 spring and damper energy.......   1.60000E-19
 hourglass energy ..............   7.65587E+03
 system damping energy..........   0.00000E+00
 sliding interface energy.......   1.60668E+04
 external work..................   0.00000E+00
 eroded kinetic energy..........   1.10478E+05
 eroded internal energy.........   3.70034E+04
 eroded hourglass energy........   6.90156E+03
 total energy...................   2.61676E+05
 total energy / initial energy..   1.39029E+00
 energy ratio w/o eroded energy.   5.70049E-01
 global x velocity..............   4.55163E+05
 global y velocity..............  -7.94464E+03
 global z velocity..............   1.25438E+04
 time per zone cycle.(nanosec)..           330

  m a s s   p r o p e r t i e s   o f   b o d y
     total mass of body          = 1.29065256E-07
     x-coordinate of mass center =-1.85903999E+01
     y-coordinate of mass center = 9.90809154E-02
     z-coordinate of mass center = 3.68169509E-01

     inertia tensor of body
     row1=     2.8457E-05    -4.8452E-07     2.1640E-07
     row2=    -4.8452E-07     2.0055E-04    -7.3652E-08
     row3=     2.1640E-07    -7.3652E-08     2.2830E-04



     principal inertias of body
     i11 =     2.8456E-05
     i22 =     2.0056E-04
     i33 =     2.2831E-04

     principal directions
     row1=     1.0000E+00    -2.8120E-03     1.0893E-03
     row2=     2.8149E-03     9.9999E-01    -2.6730E-03
     row3=    -1.0818E-03     2.6761E-03     1.0000E+00

 ************************************************************



 dt of cycle    9428 is controlled by solid           6292 of part         3

 time...........................   2.19393E-05
 time step......................   2.93614E-09
 kinetic energy.................   2.29103E+05
 internal energy................   8.84706E+03
 spring and damper energy.......   1.60000E-19
 hourglass energy ..............   7.65741E+03
 system damping energy..........   0.00000E+00
 sliding interface energy.......   1.60688E+04
 external work..................   0.00000E+00
 eroded kinetic energy..........   1.10478E+05
 eroded internal energy.........   3.70034E+04
 eroded hourglass energy........   6.90156E+03
 total energy...................   2.61676E+05
 total energy / initial energy..   1.39029E+00
 energy ratio w/o eroded energy.   5.70049E-01
 global x velocity..............   4.55163E+05
 global y velocity..............  -7.86585E+03
 global z velocity..............   1.25439E+04
 time per zone cycle.(nanosec)..           339

  m a s s   p r o p e r t i e s   o f   b o d y
     total mass of body          = 1.29065256E-07
     x-coordinate of mass center =-1.85852439E+01
     y-coordinate of mass center = 9.89913504E-02
     z-coordinate of mass center = 3.68311604E-01

     inertia tensor of body
     row1=     2.8474E-05    -4.8426E-07     2.1535E-07
     row2=    -4.8426E-07     2.0056E-04    -7.3727E-08
     row3=     2.1535E-07    -7.3727E-08     2.2833E-04



     principal inertias of body
     i11 =     2.8472E-05
     i22 =     2.0056E-04
     i33 =     2.2833E-04

     principal directions
     row1=     1.0000E+00    -2.8106E-03     1.0840E-03
     row2=     2.8135E-03     9.9999E-01    -2.6741E-03
     row3=    -1.0765E-03     2.6771E-03     1.0000E+00

 ************************************************************



 dt of cycle    9431 is controlled by solid           6292 of part         3

 time...........................   2.19481E-05
 time step......................   2.93614E-09
 kinetic energy.................   2.29091E+05
 internal energy................   8.73374E+03
 spring and damper energy.......   1.60000E-19
 hourglass energy ..............   7.65851E+03
 system damping energy..........   0.00000E+00
 sliding interface energy.......   1.60688E+04
 external work..................   0.00000E+00
 eroded kinetic energy..........   1.10478E+05
 eroded internal energy.........   3.70378E+04
 eroded hourglass energy........   6.91594E+03
 total energy...................   2.61552E+05
 total energy / initial energy..   1.38963E+00
 energy ratio w/o eroded energy.   5.69130E-01
 global x velocity..............   4.55210E+05
 global y velocity..............  -7.79462E+03
 global z velocity..............   1.25439E+04
 time per zone cycle.(nanosec)..           298

  m a s s   p r o p e r t i e s   o f   b o d y
     total mass of body          = 1.29065257E-07
     x-coordinate of mass center =-1.85813655E+01
     y-coordinate of mass center = 9.89728056E-02
     z-coordinate of mass center = 3.68418173E-01

     inertia tensor of body
     row1=     2.8486E-05    -4.8416E-07     2.1456E-07
     row2=    -4.8416E-07     2.0057E-04    -7.3782E-08
     row3=     2.1456E-07    -7.3782E-08     2.2835E-04



     principal inertias of body
     i11 =     2.8484E-05
     i22 =     2.0057E-04
     i33 =     2.2835E-04

     principal directions
     row1=     1.0000E+00    -2.8101E-03     1.0800E-03
     row2=     2.8130E-03     9.9999E-01    -2.6749E-03
     row3=    -1.0725E-03     2.6779E-03     1.0000E+00

 ************************************************************



 dt of cycle    9435 is controlled by solid           6292 of part         3

 time...........................   2.19599E-05
 time step......................   2.93615E-09
 kinetic energy.................   2.29077E+05
 internal energy................   8.74796E+03
 spring and damper energy.......   1.60000E-19
 hourglass energy ..............   7.65996E+03
 system damping energy..........   0.00000E+00
 sliding interface energy.......   1.60671E+04
 external work..................   0.00000E+00
 eroded kinetic energy..........   1.10478E+05
 eroded internal energy.........   3.70378E+04
 eroded hourglass energy........   6.91594E+03
 total energy...................   2.61552E+05
 total energy / initial energy..   1.38963E+00
 energy ratio w/o eroded energy.   5.69130E-01
 global x velocity..............   4.55210E+05
 global y velocity..............  -7.68840E+03
 global z velocity..............   1.25442E+04
 time per zone cycle.(nanosec)..           307

  m a s s   p r o p e r t i e s   o f   b o d y
     total mass of body          = 1.29065257E-07
     x-coordinate of mass center =-1.85762090E+01
     y-coordinate of mass center = 9.88850936E-02
     z-coordinate of mass center = 3.68560270E-01

     inertia tensor of body
     row1=     2.8502E-05    -4.8390E-07     2.1350E-07
     row2=    -4.8390E-07     2.0058E-04    -7.3857E-08
     row3=     2.1350E-07    -7.3857E-08     2.2837E-04



     principal inertias of body
     i11 =     2.8500E-05
     i22 =     2.0058E-04
     i33 =     2.2837E-04

     principal directions
     row1=     1.0000E+00    -2.8087E-03     1.0747E-03
     row2=     2.8116E-03     9.9999E-01    -2.6760E-03
     row3=    -1.0671E-03     2.6790E-03     1.0000E+00

 ************************************************************



 dt of cycle    9438 is controlled by solid           6292 of part         3

 time...........................   2.19687E-05
 time step......................   2.93615E-09
 kinetic energy.................   2.29066E+05
 internal energy................   8.75806E+03
 spring and damper energy.......   1.60000E-19
 hourglass energy ..............   7.66104E+03
 system damping energy..........   0.00000E+00
 sliding interface energy.......   1.60671E+04
 external work..................   0.00000E+00
 eroded kinetic energy..........   1.10478E+05
 eroded internal energy.........   3.70378E+04
 eroded hourglass energy........   6.91594E+03
 total energy...................   2.61552E+05
 total energy / initial energy..   1.38963E+00
 energy ratio w/o eroded energy.   5.69130E-01
 global x velocity..............   4.55210E+05
 global y velocity..............  -7.59783E+03
 global z velocity..............   1.25444E+04
 time per zone cycle.(nanosec)..           306

  m a s s   p r o p e r t i e s   o f   b o d y
     total mass of body          = 1.29065257E-07
     x-coordinate of mass center =-1.85723416E+01
     y-coordinate of mass center = 9.88201502E-02
     z-coordinate of mass center = 3.68666845E-01

     inertia tensor of body
     row1=     2.8514E-05    -4.8370E-07     2.1271E-07
     row2=    -4.8370E-07     2.0059E-04    -7.3914E-08
     row3=     2.1271E-07    -7.3914E-08     2.2839E-04



     principal inertias of body
     i11 =     2.8513E-05
     i22 =     2.0059E-04
     i33 =     2.2839E-04

     principal directions
     row1=     1.0000E+00    -2.8077E-03     1.0707E-03
     row2=     2.8105E-03     9.9999E-01    -2.6768E-03
     row3=    -1.0631E-03     2.6798E-03     1.0000E+00

 ************************************************************



 dt of cycle    9441 is controlled by solid           6292 of part         3

 time...........................   2.19775E-05
 time step......................   2.93616E-09
 kinetic energy.................   2.29031E+05
 internal energy................   8.76743E+03
 spring and damper energy.......   1.60000E-19
 hourglass energy ..............   7.66207E+03
 system damping energy..........   0.00000E+00
 sliding interface energy.......   1.60925E+04
 external work..................   0.00000E+00
 eroded kinetic energy..........   1.10478E+05
 eroded internal energy.........   3.70378E+04
 eroded hourglass energy........   6.91594E+03
 total energy...................   2.61553E+05
 total energy / initial energy..   1.38963E+00
 energy ratio w/o eroded energy.   5.69134E-01
 global x velocity..............   4.55210E+05
 global y velocity..............  -7.49764E+03
 global z velocity..............   1.25451E+04
 time per zone cycle.(nanosec)..           326

  m a s s   p r o p e r t i e s   o f   b o d y
     total mass of body          = 1.29065257E-07
     x-coordinate of mass center =-1.85684741E+01
     y-coordinate of mass center = 9.87560168E-02
     z-coordinate of mass center = 3.68773424E-01

     inertia tensor of body
     row1=     2.8527E-05    -4.8350E-07     2.1192E-07
     row2=    -4.8350E-07     2.0059E-04    -7.3970E-08
     row3=     2.1192E-07    -7.3970E-08     2.2841E-04



     principal inertias of body
     i11 =     2.8525E-05
     i22 =     2.0060E-04
     i33 =     2.2841E-04

     principal directions
     row1=     1.0000E+00    -2.8066E-03     1.0667E-03
     row2=     2.8095E-03     9.9999E-01    -2.6777E-03
     row3=    -1.0591E-03     2.6807E-03     1.0000E+00

 ************************************************************



 dt of cycle    9445 is controlled by solid           6292 of part         3

 time...........................   2.19892E-05
 time step......................   2.93617E-09
 kinetic energy.................   2.28822E+05
 internal energy................   8.78088E+03
 spring and damper energy.......   1.60000E-19
 hourglass energy ..............   7.66506E+03
 system damping energy..........   0.00000E+00
 sliding interface energy.......   1.62882E+04
 external work..................   0.00000E+00
 eroded kinetic energy..........   1.10478E+05
 eroded internal energy.........   3.70378E+04
 eroded hourglass energy........   6.91594E+03
 total energy...................   2.61556E+05
 total energy / initial energy..   1.38965E+00
 energy ratio w/o eroded energy.   5.69151E-01
 global x velocity..............   4.55210E+05
 global y velocity..............  -7.34877E+03
 global z velocity..............   1.25406E+04
 time per zone cycle.(nanosec)..           331

  m a s s   p r o p e r t i e s   o f   b o d y
     total mass of body          = 1.29065257E-07
     x-coordinate of mass center =-1.85633176E+01
     y-coordinate of mass center = 9.86719086E-02
     z-coordinate of mass center = 3.68915530E-01

     inertia tensor of body
     row1=     2.8543E-05    -4.8325E-07     2.1086E-07
     row2=    -4.8325E-07     2.0060E-04    -7.4046E-08
     row3=     2.1086E-07    -7.4046E-08     2.2844E-04



     principal inertias of body
     i11 =     2.8542E-05
     i22 =     2.0061E-04
     i33 =     2.2844E-04

     principal directions
     row1=     1.0000E+00    -2.8052E-03     1.0613E-03
     row2=     2.8081E-03     9.9999E-01    -2.6788E-03
     row3=    -1.0538E-03     2.6818E-03     1.0000E+00

 ************************************************************



 dt of cycle    9448 is controlled by solid           6292 of part         3

 time...........................   2.19980E-05
 time step......................   2.93617E-09
 kinetic energy.................   2.28869E+05
 internal energy................   8.78462E+03
 spring and damper energy.......   1.60000E-19
 hourglass energy ..............   7.67436E+03
 system damping energy..........   0.00000E+00
 sliding interface energy.......   1.62097E+04
 external work..................   0.00000E+00
 eroded kinetic energy..........   1.10479E+05
 eroded internal energy.........   3.70891E+04
 eroded hourglass energy........   6.92263E+03
 total energy...................   2.61537E+05
 total energy / initial energy..   1.38955E+00
 energy ratio w/o eroded energy.   5.68738E-01
 global x velocity..............   4.55241E+05
 global y velocity..............  -7.25249E+03
 global z velocity..............   1.25162E+04
 time per zone cycle.(nanosec)..           332

  m a s s   p r o p e r t i e s   o f   b o d y
     total mass of body          = 1.29124656E-07
     x-coordinate of mass center =-1.85502116E+01
     y-coordinate of mass center = 9.11424895E-02
     z-coordinate of mass center = 3.68909732E-01

     inertia tensor of body
     row1=     2.8572E-05    -4.6416E-07     2.1036E-07
     row2=    -4.6416E-07     2.0064E-04    -7.4338E-08
     row3=     2.1036E-07    -7.4338E-08     2.2850E-04



     principal inertias of body
     i11 =     2.8570E-05
     i22 =     2.0064E-04
     i33 =     2.2850E-04

     principal directions
     row1=     1.0000E+00    -2.6943E-03     1.0584E-03
     row2=     2.6971E-03     9.9999E-01    -2.6858E-03
     row3=    -1.0512E-03     2.6886E-03     1.0000E+00

 ************************************************************

