      Date: 04/08/2022      Time: 14:23:04  

     ___________________________________________________
     |                                                 |
     |  Livermore Software Technology, LLC             |
     |                                                 |
     |  7374 Las Positas Road                          |
     |  Livermore, CA 94551                            |
     |  Tel: (925) 449-2500  Fax: (925) 449-2507       |
     |  www.lstc.com                                   |
     |_________________________________________________|
     |                                                 |
     |  LS-DYNA, A Program for Nonlinear Dynamic       |
     |  Analysis of Structures in Three Dimensions     |
     |  Version : mpp d R12.0.0   Date: 06/19/2020     |
     |  Revision: 148931          Time: 17:26:40       |
     |                                                 |
     |  Features enabled in this version:              |
     |    Distributed Memory Parallel                  |
     |    CESE CHEMISTRY EM ICFD STOCHASTIC_PARTICLES  |
     |    FFTW (multi-dimensional FFTW Library)        |
     |    ANSYS License (ANSYS202)                     |
     |    BigID  option                                |
     |                                                 |
     |  Licensed to:                                   |
     |  Issued by  : Pascale.SaneGuttin_02092022       |
     |                                                 |
     |  Platform   : Intel-MPI 2018 Xeon64             |
     |  OS Level   : Linux CentOS 6.5 uom              |
     |  Compiler   : Intel Fortran Compiler 16.0 AVX-2 |
     |  Hostname   : compute-0-0                       |
     |  Precision  : Double precision (I8R8)           |
     |  SVN Version: 148978                            |
     |                                                 |
     |  Unauthorized use infringes LST copyrights      |
     |_________________________________________________|


 Input file: DynaOpt.key                                                                     

 The native file format       : 64-bit small endian

 LS-DYNA will perform a structural only analysis 

 allocating  memory to   100000000 d     1985258 hex ownership chunk
 contracting memory to           7 d     1991042 material sort chunk
 expanding   memory to          12 d     2056821 nodal force sharing lists 1
 expanding   memory to          18 d     2037477 mat scratch
 expanding   memory to          19 d     3109065 tied nodes scratch
 expanding   memory to          22 d     3109065 tied node scratch
 contracting memory to          18 d     3109065 nodal rigid body scratch
 expanding   memory to        1298 d     3109065 DES sld2des scratch
 expanding   memory to       19476 d     3109065 DES sld2des scratch
 contracting memory to        2450 d     3109065 DES sld2des scratch
 contracting memory to          18 d     3109065 spring/damper scratch
 contracting memory to           1 d     2099169 Performing Decomposition -- Phase 3
 LS-DYNA keyword deck by LS-PrePost                                      
                         ls-dyna mpp.148931 d           date 06/19/2020
 expanding   memory to        4305 d     2099169 material, node and element data
 expanding   memory to        4399 d     2099188 mat add general damage 0
 expanding   memory to        4459 d     2099188 material added airbag porosity leakage 
 expanding   memory to        4477 d     2099188 material properties
 expanding   memory to        4495 d     2139131 element data for composite material
 expanding   memory to        4510 d     2478592 gradient of damage data
 expanding   memory to       17660 d     2521981 user control for contact interfaces
 contracting memory to       17646 d     2521981 thermal expansion 0
 expanding   memory to       17652 d     2521981 state of charge expansion 0
 expanding   memory to       17654 d     2521981 cross-sectional force definitions 0
 expanding   memory to       27630 d     2522017 temp index array for node sorting
 contracting memory to       17654 d     2522017 just because?
 expanding   memory to       20546 d     2541987 arbitrary element numbering input
 contracting memory to       17674 d    27199883 spc cards
 contracting memory to       17661 d    27199883 d3thdt storage
 expanding   memory to       17662 d    27289042 process element material data
 expanding   memory to       19663 d    27289036 load curve data
 contracting memory to       17669 d    27289036 user_define_loading_set
 expanding   memory to       17869 d    27289036 regularize time history data
 contracting memory to       17673 d    27289036 *DEFINE_ELEMENT_DEATH
 expanding   memory to       17928 d    27270013 contact interfaces
 expanding   memory to       38880 d    27270013 implicit contact 1
 expanding   memory to       61970 d    27270013 implicit contact 2
 contracting memory to       18928 d    27538616 contact segment data 1
 expanding   memory to       71992 d    27790688 contact segment data 3
 expanding   memory to      164672 d    27663166 read contacts, eroding check
 expanding   memory to      254195 d    27663166 eroding neighbors 2
 expanding   memory to      274440 d    27663166 eroding neighbors
 contracting memory to      112482 d    28112078 contact definition
 expanding   memory to      112488 d    28261778 contact history
 expanding   memory to      112542 d    28344177 rigid body
 expanding   memory to      112560 d    28344791 rbe2 scratch
 contracting memory to      112546 d    28407705 contact friction
 expanding   memory to      112636 d    28407711 joints
 expanding   memory to      114696 d    28407711 de sld2des
 expanding   memory to      114736 d    28416387 discrete elements regions
 expanding   memory to      114836 d    28621707 rigid bodies for disp. termination
 
 *** Warning 40859 (SOL+859)
     Cannot find elements of slave segment of interface 2
 deleted segment ID          n1          n2          n3          n4
       1 310640 310640 310640 310640
       2 310641 310641 310641 310641
       3 310642 310642 310642 310642
       4 310643 310643 310643 310643
       5 310644 310644 310644 310644
       6 310645 310645 310645 310645
       7 310648 310648 310648 310648
       8 310653 310653 310653 310653
       9 310660 310660 310660 310660
       10 310666 310666 310666 310666
       11 310668 310668 310668 310668
       12 310672 310672 310672 310672
       13 310675 310675 310675 310675
       14 310677 310677 310677 310677
       15 310681 310681 310681 310681
       16 310684 310684 310684 310684
       17 310685 310685 310685 310685
       18 310686 310686 310686 310686
       19 310688 310688 310688 310688
       20 310689 310689 310689 310689
       21 310692 310692 310692 310692
       22 310697 310697 310697 310697
       23 310704 310704 310704 310704
       24 310710 310710 310710 310710
       25 310712 310712 310712 310712
       26 310716 310716 310716 310716
       27 310719 310719 310719 310719
       28 310721 310721 310721 310721
       29 310723 310723 310723 310723
       30 310724 310724 310724 310724
       31 310725 310725 310725 310725
       32 310726 310726 310726 310726
       33 310729 310729 310729 310729
       34 310734 310734 310734 310734
       35 310741 310741 310741 310741
       36 310748 310748 310748 310748
       37 310752 310752 310752 310752
       38 310755 310755 310755 310755
       39 310757 310757 310757 310757
       40 310758 310758 310758 310758
       41 310759 310759 310759 310759
       42 310760 310760 310760 310760
       43 310761 310761 310761 310761
       44 310765 310765 310765 310765
       45 310770 310770 310770 310770
       46 310777 310777 310777 310777
       47 310785 310785 310785 310785
       48 310788 310788 310788 310788
       49 310791 310791 310791 310791
       50 310799 310799 310799 310799
       51 310800 310800 310800 310800
       52 310801 310801 310801 310801
       53 310805 310805 310805 310805
       54 310810 310810 310810 310810
       55 310817 310817 310817 310817
       56 310825 310825 310825 310825
       57 310829 310829 310829 310829
       58 310832 310832 310832 310832
       59 310835 310835 310835 310835
       60 310838 310838 310838 310838
       61 310839 310839 310839 310839
       62 310840 310840 310840 310840
       63 310844 310844 310844 310844
       64 310849 310849 310849 310849
       65 310852 310852 310852 310852
       66 310856 310856 310856 310856
       67 310864 310864 310864 310864
       68 310868 310868 310868 310868
       69 310871 310871 310871 310871
       70 310875 310875 310875 310875
       71 310876 310876 310876 310876
       72 310877 310877 310877 310877
       73 310878 310878 310878 310878
       74 310882 310882 310882 310882
       75 310887 310887 310887 310887
       76 310890 310890 310890 310890
       77 310894 310894 310894 310894
       78 310902 310902 310902 310902
       79 310906 310906 310906 310906
       80 310909 310909 310909 310909
       81 310911 310911 310911 310911
       82 310912 310912 310912 310912
       83 310913 310913 310913 310913
       84 310914 310914 310914 310914
       85 310915 310915 310915 310915
       86 310919 310919 310919 310919
       87 310924 310924 310924 310924
       88 310927 310927 310927 310927
       89 310931 310931 310931 310931
       90 310939 310939 310939 310939
       91 310943 310943 310943 310943
       92 310946 310946 310946 310946
       93 310948 310948 310948 310948
       94 310950 310950 310950 310950
       95 310951 310951 310951 310951
       96 310952 310952 310952 310952
       97 310956 310956 310956 310956
       98 310961 310961 310961 310961
       99 310964 310964 310964 310964
       100 310968 310968 310968 310968
       101 310976 310976 310976 310976
       102 310980 310980 310980 310980
       103 310983 310983 310983 310983
       104 310985 310985 310985 310985
       105 310986 310986 310986 310986
       106 310989 310989 310989 310989
       107 310990 310990 310990 310990
       108 310991 310991 310991 310991
       109 310995 310995 310995 310995
       110 310999 310999 310999 310999
       111 311002 311002 311002 311002
       112 311006 311006 311006 311006
       113 311014 311014 311014 311014
       114 311018 311018 311018 311018
       115 311021 311021 311021 311021
       116 311023 311023 311023 311023
       117 311025 311025 311025 311025
       118 311026 311026 311026 311026
       119 311027 311027 311027 311027
       120 311036 311036 311036 311036
       121 311037 311037 311037 311037
       122 311039 311039 311039 311039
       123 311043 311043 311043 311043
       124 311051 311051 311051 311051
       125 311055 311055 311055 311055
       126 311058 311058 311058 311058
       127 311060 311060 311060 311060
       128 311061 311061 311061 311061
       129 311062 311062 311062 311062
       130 311063 311063 311063 311063
       131 311064 311064 311064 311064
       132 311065 311065 311065 311065
       133 311069 311069 311069 311069
       134 311074 311074 311074 311074
       135 311077 311077 311077 311077
       136 311081 311081 311081 311081
       137 311089 311089 311089 311089
       138 311093 311093 311093 311093
       139 311096 311096 311096 311096
       140 311099 311099 311099 311099
       141 311100 311100 311100 311100
       142 311101 311101 311101 311101
       143 311105 311105 311105 311105
       144 311110 311110 311110 311110
       145 311113 311113 311113 311113
       146 311114 311114 311114 311114
       147 311117 311117 311117 311117
       148 311125 311125 311125 311125
       149 311129 311129 311129 311129
       150 311132 311132 311132 311132
       151 311136 311136 311136 311136
       152 311137 311137 311137 311137
       153 311138 311138 311138 311138
       154 311142 311142 311142 311142
       155 311147 311147 311147 311147
       156 311150 311150 311150 311150
       157 311154 311154 311154 311154
       158 311162 311162 311162 311162
       159 311166 311166 311166 311166
       160 311169 311169 311169 311169
       161 311171 311171 311171 311171
       162 311172 311172 311172 311172
       163 311173 311173 311173 311173
       164 311176 311176 311176 311176
       165 311178 311178 311178 311178
       166 311179 311179 311179 311179
       167 311180 311180 311180 311180
       168 311182 311182 311182 311182
       169 311187 311187 311187 311187
       170 311190 311190 311190 311190
       171 311194 311194 311194 311194
       172 311202 311202 311202 311202
       173 311206 311206 311206 311206
       174 311209 311209 311209 311209
       175 311215 311215 311215 311215
       176 311217 311217 311217 311217
       177 311218 311218 311218 311218
       178 311221 311221 311221 311221
       179 311226 311226 311226 311226
       180 311229 311229 311229 311229
       181 311233 311233 311233 311233
       182 311241 311241 311241 311241
       183 311245 311245 311245 311245
       184 311248 311248 311248 311248
       185 311251 311251 311251 311251
       186 311252 311252 311252 311252
       187 311253 311253 311253 311253
       188 311255 311255 311255 311255
       189 311256 311256 311256 311256
       190 311257 311257 311257 311257
       191 311262 311262 311262 311262
       192 311267 311267 311267 311267
       193 311270 311270 311270 311270
       194 311274 311274 311274 311274
       195 311282 311282 311282 311282
       196 311286 311286 311286 311286
       197 311289 311289 311289 311289
       198 311298 311298 311298 311298
       199 311299 311299 311299 311299
       200 311304 311304 311304 311304
       201 311309 311309 311309 311309
       202 311312 311312 311312 311312
       203 311315 311315 311315 311315
       204 311323 311323 311323 311323
       205 311327 311327 311327 311327
       206 311330 311330 311330 311330
       207 311335 311335 311335 311335
       208 311336 311336 311336 311336
       209 311337 311337 311337 311337
       210 311338 311338 311338 311338
       211 311348 311348 311348 311348
       212 311349 311349 311349 311349
       213 311351 311351 311351 311351
       214 311354 311354 311354 311354
       215 311361 311361 311361 311361
       216 311365 311365 311365 311365
       217 311368 311368 311368 311368
       218 311373 311373 311373 311373
       219 311374 311374 311374 311374
       220 311379 311379 311379 311379
       221 311384 311384 311384 311384
       222 311386 311386 311386 311386
       223 311387 311387 311387 311387
       224 311390 311390 311390 311390
       225 311393 311393 311393 311393
       226 311397 311397 311397 311397
       227 311401 311401 311401 311401
       228 311404 311404 311404 311404
       229 311410 311410 311410 311410
       230 311411 311411 311411 311411
       231 311412 311412 311412 311412
       232 311417 311417 311417 311417
       233 311423 311423 311423 311423
       234 311424 311424 311424 311424
       235 311425 311425 311425 311425
       236 311428 311428 311428 311428
       237 311429 311429 311429 311429
       238 311432 311432 311432 311432
       239 311436 311436 311436 311436
       240 311440 311440 311440 311440
       241 311443 311443 311443 311443
       242 311446 311446 311446 311446
       243 311448 311448 311448 311448
       244 311449 311449 311449 311449
       245 311454 311454 311454 311454
       246 311459 311459 311459 311459
       247 311461 311461 311461 311461
       248 311462 311462 311462 311462
       249 311466 311466 311466 311466
       250 311467 311467 311467 311467
       251 311470 311470 311470 311470
       252 311474 311474 311474 311474
       253 311478 311478 311478 311478
       254 311481 311481 311481 311481
       255 311485 311485 311485 311485
       256 311487 311487 311487 311487
       257 311488 311488 311488 311488
       258 311492 311492 311492 311492
       259 311497 311497 311497 311497
       260 311499 311499 311499 311499
       261 311500 311500 311500 311500
       262 311504 311504 311504 311504
       263 311505 311505 311505 311505
       264 311508 311508 311508 311508
       265 311512 311512 311512 311512
       266 311516 311516 311516 311516
       267 311519 311519 311519 311519
       268 311522 311522 311522 311522
       269 311524 311524 311524 311524
       270 311525 311525 311525 311525
       271 311528 311528 311528 311528
       272 311529 311529 311529 311529
       273 311536 311536 311536 311536
       274 311538 311538 311538 311538
       275 311539 311539 311539 311539
       276 311543 311543 311543 311543
       277 311544 311544 311544 311544
       278 311547 311547 311547 311547
       279 311551 311551 311551 311551
       280 311555 311555 311555 311555
       281 311558 311558 311558 311558
       282 311563 311563 311563 311563
       283 311564 311564 311564 311564
       284 311565 311565 311565 311565
       285 311571 311571 311571 311571
       286 311576 311576 311576 311576
       287 311577 311577 311577 311577
       288 311578 311578 311578 311578
       289 311582 311582 311582 311582
       290 311583 311583 311583 311583
       291 311586 311586 311586 311586
       292 311590 311590 311590 311590
       293 311594 311594 311594 311594
       294 311597 311597 311597 311597
       295 311603 311603 311603 311603
       296 311604 311604 311604 311604
       297 311605 311605 311605 311605
       298 311611 311611 311611 311611
       299 311615 311615 311615 311615
       300 311617 311617 311617 311617
       301 311618 311618 311618 311618
       302 311622 311622 311622 311622
       303 311623 311623 311623 311623
       304 311630 311630 311630 311630
       305 311634 311634 311634 311634
       306 311637 311637 311637 311637
       307 311640 311640 311640 311640
       308 311642 311642 311642 311642
       309 311643 311643 311643 311643
       310 311645 311645 311645 311645
       311 311650 311650 311650 311650
       312 311654 311654 311654 311654
       313 311656 311656 311656 311656
       314 311657 311657 311657 311657
       315 311661 311661 311661 311661
       316 311662 311662 311662 311662
       317 311669 311669 311669 311669
       318 311673 311673 311673 311673
       319 311676 311676 311676 311676
       320 311680 311680 311680 311680
       321 311681 311681 311681 311681
       322 311687 311687 311687 311687
       323 311692 311692 311692 311692
       324 311694 311694 311694 311694
       325 311696 311696 311696 311696
       326 311698 311698 311698 311698
       327 311699 311699 311699 311699
       328 311706 311706 311706 311706
       329 311710 311710 311710 311710
       330 311713 311713 311713 311713
       331 311718 311718 311718 311718
       332 311721 311721 311721 311721
       333 311722 311722 311722 311722
       334 311728 311728 311728 311728
       335 311732 311732 311732 311732
       336 311734 311734 311734 311734
       337 311735 311735 311735 311735
       338 311739 311739 311739 311739
       339 311740 311740 311740 311740
       340 311747 311747 311747 311747
       341 311751 311751 311751 311751
       342 311754 311754 311754 311754
       343 311756 311756 311756 311756
       344 311758 311758 311758 311758
       345 311759 311759 311759 311759
       346 311765 311765 311765 311765
       347 311769 311769 311769 311769
       348 311771 311771 311771 311771
       349 311772 311772 311772 311772
       350 311776 311776 311776 311776
       351 311777 311777 311777 311777
       352 311784 311784 311784 311784
       353 311788 311788 311788 311788
       354 311791 311791 311791 311791
       355 311795 311795 311795 311795
       356 311801 311801 311801 311801
       357 311805 311805 311805 311805
       358 311807 311807 311807 311807
       359 311808 311808 311808 311808
       360 311812 311812 311812 311812
       361 311813 311813 311813 311813
       362 311814 311814 311814 311814
       363 311820 311820 311820 311820
       364 311824 311824 311824 311824
       365 311827 311827 311827 311827
       366 311833 311833 311833 311833
       367 311834 311834 311834 311834
       368 311840 311840 311840 311840
       369 311844 311844 311844 311844
       370 311846 311846 311846 311846
       371 311847 311847 311847 311847
       372 311851 311851 311851 311851
       373 311852 311852 311852 311852
       374 311853 311853 311853 311853
       375 311859 311859 311859 311859
       376 311863 311863 311863 311863
       377 311866 311866 311866 311866
       378 311869 311869 311869 311869
       379 311870 311870 311870 311870
       380 311873 311873 311873 311873
       381 311874 311874 311874 311874
       382 311884 311884 311884 311884
       383 311885 311885 311885 311885
       384 311886 311886 311886 311886
       385 311887 311887 311887 311887
       386 311891 311891 311891 311891
       387 311892 311892 311892 311892
       388 311893 311893 311893 311893
       389 311899 311899 311899 311899
       390 311903 311903 311903 311903
       391 311906 311906 311906 311906
       392 311910 311910 311910 311910
       393 311911 311911 311911 311911
       394 311917 311917 311917 311917
       395 311921 311921 311921 311921
       396 311923 311923 311923 311923
       397 311924 311924 311924 311924
       398 311928 311928 311928 311928
       399 311929 311929 311929 311929
       400 311930 311930 311930 311930
       401 311936 311936 311936 311936
       402 311940 311940 311940 311940
       403 311943 311943 311943 311943
       404 311945 311945 311945 311945
       405 311948 311948 311948 311948
       406 311949 311949 311949 311949
       407 311950 311950 311950 311950
       408 311956 311956 311956 311956
       409 311959 311959 311959 311959
       410 311961 311961 311961 311961
       411 311962 311962 311962 311962
       412 311966 311966 311966 311966
       413 311967 311967 311967 311967
       414 311968 311968 311968 311968
       415 311974 311974 311974 311974
       416 311978 311978 311978 311978
       417 311981 311981 311981 311981
       418 311986 311986 311986 311986
       419 311987 311987 311987 311987
       420 311988 311988 311988 311988
       421 311994 311994 311994 311994
       422 311997 311997 311997 311997
       423 311998 311998 311998 311998
       424 312000 312000 312000 312000
       425 312001 312001 312001 312001
       426 312005 312005 312005 312005
       427 312006 312006 312006 312006
       428 312007 312007 312007 312007
       429 312013 312013 312013 312013
       430 312017 312017 312017 312017
       431 312020 312020 312020 312020
       432 312025 312025 312025 312025
       433 312026 312026 312026 312026
       434 312033 312033 312033 312033
       435 312035 312035 312035 312035
       436 312037 312037 312037 312037
       437 312038 312038 312038 312038
       438 312042 312042 312042 312042
       439 312043 312043 312043 312043
       440 312044 312044 312044 312044
       441 312050 312050 312050 312050
       442 312054 312054 312054 312054
       443 312057 312057 312057 312057
       444 312061 312061 312061 312061
       445 312062 312062 312062 312062
       446 312068 312068 312068 312068
       447 312070 312070 312070 312070
       448 312072 312072 312072 312072
       449 312074 312074 312074 312074
       450 312075 312075 312075 312075
       451 312079 312079 312079 312079
       452 312080 312080 312080 312080
       453 312081 312081 312081 312081
       454 312087 312087 312087 312087
       455 312091 312091 312091 312091
       456 312094 312094 312094 312094
       457 312096 312096 312096 312096
       458 312099 312099 312099 312099
       459 312102 312102 312102 312102
       460 312103 312103 312103 312103
       461 312107 312107 312107 312107
       462 312111 312111 312111 312111
       463 312112 312112 312112 312112
       464 312114 312114 312114 312114
       465 312115 312115 312115 312115
       466 312119 312119 312119 312119
       467 312120 312120 312120 312120
       468 312121 312121 312121 312121
       469 312127 312127 312127 312127
       470 312131 312131 312131 312131
       471 312134 312134 312134 312134
       472 312137 312137 312137 312137
       473 312138 312138 312138 312138
       474 312143 312143 312143 312143
       475 312147 312147 312147 312147
       476 312148 312148 312148 312148
       477 312150 312150 312150 312150
       478 312151 312151 312151 312151
       479 312153 312153 312153 312153
       480 312155 312155 312155 312155
       481 312156 312156 312156 312156
       482 312157 312157 312157 312157
       483 312163 312163 312163 312163
       484 312167 312167 312167 312167
       485 312170 312170 312170 312170
       486 312175 312175 312175 312175
       487 312176 312176 312176 312176
       488 312181 312181 312181 312181
       489 312185 312185 312185 312185
       490 312187 312187 312187 312187
       491 312188 312188 312188 312188
       492 312191 312191 312191 312191
       493 312192 312192 312192 312192
       494 312193 312193 312193 312193
       495 312194 312194 312194 312194
       496 312200 312200 312200 312200
       497 312204 312204 312204 312204
       498 312207 312207 312207 312207
       499 312211 312211 312211 312211
       500 312212 312212 312212 312212
       501 312218 312218 312218 312218
       502 312221 312221 312221 312221
       503 312222 312222 312222 312222
       504 312224 312224 312224 312224
       505 312225 312225 312225 312225
       506 312228 312228 312228 312228
       507 312229 312229 312229 312229
       508 312230 312230 312230 312230
       509 312231 312231 312231 312231
       510 312237 312237 312237 312237
       511 312241 312241 312241 312241
       512 312244 312244 312244 312244
       513 312246 312246 312246 312246
       514 312247 312247 312247 312247
       515 312248 312248 312248 312248
       516 312249 312249 312249 312249
       517 312255 312255 312255 312255
       518 312258 312258 312258 312258
       519 312259 312259 312259 312259
       520 312260 312260 312260 312260
       521 312261 312261 312261 312261
       522 312264 312264 312264 312264
       523 312265 312265 312265 312265
       524 312266 312266 312266 312266
       525 312267 312267 312267 312267
       526 312273 312273 312273 312273
       527 312277 312277 312277 312277
       528 312280 312280 312280 312280
       529 312282 312282 312282 312282
       530 312283 312283 312283 312283
       531 312284 312284 312284 312284
       532 312285 312285 312285 312285
       533 312290 312290 312290 312290
       534 312294 312294 312294 312294
       535 312296 312296 312296 312296
       536 312297 312297 312297 312297
       537 312300 312300 312300 312300
       538 312301 312301 312301 312301
       539 312302 312302 312302 312302
       540 312303 312303 312303 312303
       541 312309 312309 312309 312309
       542 312313 312313 312313 312313
       543 312316 312316 312316 312316
       544 312318 312318 312318 312318
       545 312320 312320 312320 312320
       546 312321 312321 312321 312321
       547 312322 312322 312322 312322
       548 312327 312327 312327 312327
       549 312330 312330 312330 312330
       550 312332 312332 312332 312332
       551 312333 312333 312333 312333
       552 312334 312334 312334 312334
       553 312337 312337 312337 312337
       554 312338 312338 312338 312338
       555 312339 312339 312339 312339
       556 312340 312340 312340 312340
       557 312346 312346 312346 312346
       558 312350 312350 312350 312350
       559 312353 312353 312353 312353
       560 312355 312355 312355 312355
       561 312356 312356 312356 312356
       562 312362 312362 312362 312362
       563 312365 312365 312365 312365
       564 312367 312367 312367 312367
       565 312368 312368 312368 312368
       566 312369 312369 312369 312369
       567 312372 312372 312372 312372
       568 312373 312373 312373 312373
       569 312374 312374 312374 312374
       570 312375 312375 312375 312375
       571 312381 312381 312381 312381
       572 312385 312385 312385 312385
       573 312388 312388 312388 312388
       574 312394 312394 312394 312394
       575 312395 312395 312395 312395
       576 312401 312401 312401 312401
       577 312404 312404 312404 312404
       578 312406 312406 312406 312406
       579 312407 312407 312407 312407
       580 312408 312408 312408 312408
       581 312411 312411 312411 312411
       582 312412 312412 312412 312412
       583 312413 312413 312413 312413
       584 312414 312414 312414 312414
       585 312420 312420 312420 312420
       586 312424 312424 312424 312424
       587 312427 312427 312427 312427
       588 312433 312433 312433 312433
       589 312434 312434 312434 312434
       590 312440 312440 312440 312440
       591 312443 312443 312443 312443
       592 312444 312444 312444 312444
       593 312446 312446 312446 312446
       594 312447 312447 312447 312447
       595 312449 312449 312449 312449
       596 312450 312450 312450 312450
       597 312451 312451 312451 312451
       598 312452 312452 312452 312452
       599 312458 312458 312458 312458
       600 312462 312462 312462 312462
       601 312465 312465 312465 312465
       602 312467 312467 312467 312467
       603 312471 312471 312471 312471
       604 312472 312472 312472 312472
       605 312478 312478 312478 312478
       606 312481 312481 312481 312481
       607 312484 312484 312484 312484
       608 312485 312485 312485 312485
       609 312488 312488 312488 312488
       610 312489 312489 312489 312489
       611 312490 312490 312490 312490
       612 312491 312491 312491 312491
       613 312497 312497 312497 312497
       614 312501 312501 312501 312501
       615 312504 312504 312504 312504
       616 312506 312506 312506 312506
       617 312508 312508 312508 312508
       618 312509 312509 312509 312509
       619 312515 312515 312515 312515
       620 312518 312518 312518 312518
       621 312521 312521 312521 312521
       622 312522 312522 312522 312522
       623 312525 312525 312525 312525
       624 312526 312526 312526 312526
       625 312527 312527 312527 312527
       626 312528 312528 312528 312528
       627 312534 312534 312534 312534
       628 312538 312538 312538 312538
       629 312541 312541 312541 312541
       630 312545 312545 312545 312545
       631 312547 312547 312547 312547
       632 312548 312548 312548 312548
       633 312554 312554 312554 312554
       634 312557 312557 312557 312557
       635 312560 312560 312560 312560
       636 312561 312561 312561 312561
       637 312564 312564 312564 312564
       638 312565 312565 312565 312565
       639 312566 312566 312566 312566
       640 312567 312567 312567 312567
       641 312573 312573 312573 312573
       642 312577 312577 312577 312577
       643 312580 312580 312580 312580
       644 312583 312583 312583 312583
       645 312584 312584 312584 312584
       646 312593 312593 312593 312593
       647 312594 312594 312594 312594
       648 312596 312596 312596 312596
       649 312597 312597 312597 312597
       650 312600 312600 312600 312600
       651 312601 312601 312601 312601
       652 312602 312602 312602 312602
       653 312603 312603 312603 312603
       654 312609 312609 312609 312609
       655 312616 312616 312616 312616
       656 312620 312620 312620 312620
       657 312622 312622 312622 312622
       658 312623 312623 312623 312623
       659 312629 312629 312629 312629
       660 312632 312632 312632 312632
       661 312635 312635 312635 312635
       662 312636 312636 312636 312636
       663 312639 312639 312639 312639
       664 312640 312640 312640 312640
       665 312641 312641 312641 312641
       666 312642 312642 312642 312642
       667 312648 312648 312648 312648
       668 312656 312656 312656 312656
       669 312657 312657 312657 312657
       670 312658 312658 312658 312658
       671 312664 312664 312664 312664
       672 312667 312667 312667 312667
       673 312670 312670 312670 312670
       674 312671 312671 312671 312671
       675 312674 312674 312674 312674
       676 312675 312675 312675 312675
       677 312676 312676 312676 312676
       678 312677 312677 312677 312677
       679 312683 312683 312683 312683
       680 312692 312692 312692 312692
       681 312693 312693 312693 312693
       682 312699 312699 312699 312699
       683 312702 312702 312702 312702
       684 312705 312705 312705 312705
       685 312706 312706 312706 312706
       686 312709 312709 312709 312709
       687 312710 312710 312710 312710
       688 312711 312711 312711 312711
       689 312712 312712 312712 312712
       690 312718 312718 312718 312718
       691 312726 312726 312726 312726
       692 312728 312728 312728 312728
       693 312730 312730 312730 312730
       694 312731 312731 312731 312731
       695 312736 312736 312736 312736
       696 312739 312739 312739 312739
       697 312742 312742 312742 312742
       698 312743 312743 312743 312743
       699 312746 312746 312746 312746
       700 312747 312747 312747 312747
       701 312748 312748 312748 312748
       702 312749 312749 312749 312749
       703 312755 312755 312755 312755
       704 312764 312764 312764 312764
       705 312767 312767 312767 312767
       706 312773 312773 312773 312773
       707 312775 312775 312775 312775
       708 312778 312778 312778 312778
       709 312779 312779 312779 312779
       710 312782 312782 312782 312782
       711 312783 312783 312783 312783
       712 312784 312784 312784 312784
       713 312785 312785 312785 312785
       714 312791 312791 312791 312791
       715 312798 312798 312798 312798
       716 312802 312802 312802 312802
       717 312803 312803 312803 312803
       718 312809 312809 312809 312809
       719 312812 312812 312812 312812
       720 312815 312815 312815 312815
       721 312816 312816 312816 312816
       722 312819 312819 312819 312819
       723 312820 312820 312820 312820
       724 312821 312821 312821 312821
       725 312822 312822 312822 312822
       726 312828 312828 312828 312828
       727 312835 312835 312835 312835
       728 312841 312841 312841 312841
       729 312842 312842 312842 312842
       730 312847 312847 312847 312847
       731 312850 312850 312850 312850
       732 312853 312853 312853 312853
       733 312854 312854 312854 312854
       734 312857 312857 312857 312857
       735 312858 312858 312858 312858
       736 312859 312859 312859 312859
       737 312860 312860 312860 312860
       738 312866 312866 312866 312866
       739 312873 312873 312873 312873
       740 312876 312876 312876 312876
       741 312877 312877 312877 312877
       742 312883 312883 312883 312883
       743 312886 312886 312886 312886
       744 312889 312889 312889 312889
       745 312890 312890 312890 312890
       746 312893 312893 312893 312893
       747 312894 312894 312894 312894
       748 312895 312895 312895 312895
       749 312896 312896 312896 312896
       750 312902 312902 312902 312902
       751 312909 312909 312909 312909
       752 312911 312911 312911 312911
       753 312915 312915 312915 312915
       754 312916 312916 312916 312916
       755 312922 312922 312922 312922
       756 312925 312925 312925 312925
       757 312928 312928 312928 312928
       758 312929 312929 312929 312929
       759 312932 312932 312932 312932
       760 312933 312933 312933 312933
       761 312934 312934 312934 312934
       762 312935 312935 312935 312935
       763 312941 312941 312941 312941
       764 312948 312948 312948 312948
       765 312954 312954 312954 312954
       766 312955 312955 312955 312955
       767 312956 312956 312956 312956
       768 312962 312962 312962 312962
       769 312965 312965 312965 312965
       770 312968 312968 312968 312968
       771 312969 312969 312969 312969
       772 312972 312972 312972 312972
       773 312973 312973 312973 312973
       774 312974 312974 312974 312974
       775 312975 312975 312975 312975
       776 312981 312981 312981 312981
       777 312988 312988 312988 312988
       778 312990 312990 312990 312990
       779 312991 312991 312991 312991
       780 312994 312994 312994 312994
       781 312999 312999 312999 312999
       782 313002 313002 313002 313002
       783 313005 313005 313005 313005
       784 313006 313006 313006 313006
       785 313009 313009 313009 313009
       786 313010 313010 313010 313010
       787 313011 313011 313011 313011
       788 313012 313012 313012 313012
       789 313018 313018 313018 313018
       790 313025 313025 313025 313025
       791 313029 313029 313029 313029
       792 313031 313031 313031 313031
       793 313036 313036 313036 313036
       794 313039 313039 313039 313039
       795 313042 313042 313042 313042
       796 313045 313045 313045 313045
       797 313046 313046 313046 313046
       798 313049 313049 313049 313049
       799 313050 313050 313050 313050
       800 313051 313051 313051 313051
       801 313052 313052 313052 313052
       802 313058 313058 313058 313058
       803 313065 313065 313065 313065
       804 313067 313067 313067 313067
       805 313075 313075 313075 313075
       806 313079 313079 313079 313079
       807 313082 313082 313082 313082
       808 313085 313085 313085 313085
       809 313086 313086 313086 313086
       810 313089 313089 313089 313089
       811 313090 313090 313090 313090
       812 313091 313091 313091 313091
       813 313092 313092 313092 313092
       814 313093 313093 313093 313093
       815 313105 313105 313105 313105
       816 313107 313107 313107 313107
       817 313109 313109 313109 313109
       818 313114 313114 313114 313114
       819 313117 313117 313117 313117
       820 313119 313119 313119 313119
       821 313123 313123 313123 313123
       822 313124 313124 313124 313124
       823 313126 313126 313126 313126
       824 313127 313127 313127 313127
       825 313128 313128 313128 313128
       826 313129 313129 313129 313129
       827 313135 313135 313135 313135
       828 313142 313142 313142 313142
       829 313147 313147 313147 313147
       830 313150 313150 313150 313150
       831 313152 313152 313152 313152
       832 313155 313155 313155 313155
       833 313158 313158 313158 313158
       834 313161 313161 313161 313161
       835 313162 313162 313162 313162
       836 313165 313165 313165 313165
       837 313166 313166 313166 313166
       838 313167 313167 313167 313167
       839 313168 313168 313168 313168
       840 313174 313174 313174 313174
       841 313181 313181 313181 313181
       842 313185 313185 313185 313185
       843 313188 313188 313188 313188
       844 313190 313190 313190 313190
       845 313193 313193 313193 313193
       846 313196 313196 313196 313196
       847 313199 313199 313199 313199
       848 313200 313200 313200 313200
       849 313203 313203 313203 313203
       850 313204 313204 313204 313204
       851 313205 313205 313205 313205
       852 313206 313206 313206 313206
       853 313212 313212 313212 313212
       854 313219 313219 313219 313219
       855 313224 313224 313224 313224
       856 313226 313226 313226 313226
       857 313229 313229 313229 313229
       858 313232 313232 313232 313232
       859 313235 313235 313235 313235
       860 313236 313236 313236 313236
       861 313239 313239 313239 313239
       862 313240 313240 313240 313240
       863 313241 313241 313241 313241
       864 313242 313242 313242 313242
       865 313248 313248 313248 313248
       866 313254 313254 313254 313254
       867 313260 313260 313260 313260
       868 313261 313261 313261 313261
       869 313264 313264 313264 313264
       870 313267 313267 313267 313267
       871 313270 313270 313270 313270
       872 313271 313271 313271 313271
       873 313274 313274 313274 313274
       874 313275 313275 313275 313275
       875 313276 313276 313276 313276
       876 313277 313277 313277 313277
       877 313283 313283 313283 313283
       878 313290 313290 313290 313290
       879 313296 313296 313296 313296
       880 313298 313298 313298 313298
       881 313301 313301 313301 313301
       882 313304 313304 313304 313304
       883 313307 313307 313307 313307
       884 313308 313308 313308 313308
       885 313311 313311 313311 313311
       886 313312 313312 313312 313312
       887 313313 313313 313313 313313
       888 313314 313314 313314 313314
       889 313320 313320 313320 313320
       890 313327 313327 313327 313327
       891 313332 313332 313332 313332
       892 313334 313334 313334 313334
       893 313337 313337 313337 313337
       894 313340 313340 313340 313340
       895 313343 313343 313343 313343
       896 313344 313344 313344 313344
       897 313347 313347 313347 313347
       898 313348 313348 313348 313348
       899 313349 313349 313349 313349
       900 313350 313350 313350 313350
       901 313352 313352 313352 313352
       902 313356 313356 313356 313356
       903 313363 313363 313363 313363
       904 313366 313366 313366 313366
       905 313370 313370 313370 313370
       906 313372 313372 313372 313372
       907 313375 313375 313375 313375
       908 313378 313378 313378 313378
       909 313381 313381 313381 313381
       910 313382 313382 313382 313382
       911 313385 313385 313385 313385
       912 313386 313386 313386 313386
       913 313387 313387 313387 313387
       914 313388 313388 313388 313388
       915 313390 313390 313390 313390
       916 313394 313394 313394 313394
       917 313401 313401 313401 313401
       918 313404 313404 313404 313404
       919 313408 313408 313408 313408
       920 313410 313410 313410 313410
       921 313412 313412 313412 313412
       922 313415 313415 313415 313415
       923 313418 313418 313418 313418
       924 313419 313419 313419 313419
       925 313422 313422 313422 313422
       926 313423 313423 313423 313423
       927 313424 313424 313424 313424
       928 313425 313425 313425 313425
       929 313427 313427 313427 313427
       930 313431 313431 313431 313431
       931 313438 313438 313438 313438
       932 313442 313442 313442 313442
       933 313445 313445 313445 313445
       934 313451 313451 313451 313451
       935 313452 313452 313452 313452
       936 313455 313455 313455 313455
       937 313457 313457 313457 313457
       938 313460 313460 313460 313460
       939 313461 313461 313461 313461
       940 313464 313464 313464 313464
       941 313465 313465 313465 313465
       942 313466 313466 313466 313466
       943 313467 313467 313467 313467
       944 313469 313469 313469 313469
       945 313473 313473 313473 313473
       946 313480 313480 313480 313480
       947 313482 313482 313482 313482
       948 313485 313485 313485 313485
       949 313489 313489 313489 313489
       950 313492 313492 313492 313492
       951 313494 313494 313494 313494
       952 313497 313497 313497 313497
       953 313500 313500 313500 313500
       954 313501 313501 313501 313501
       955 313504 313504 313504 313504
       956 313505 313505 313505 313505
       957 313506 313506 313506 313506
       958 313508 313508 313508 313508
       959 313512 313512 313512 313512
       960 313519 313519 313519 313519
       961 313523 313523 313523 313523
       962 313528 313528 313528 313528
       963 313531 313531 313531 313531
       964 313532 313532 313532 313532
       965 313534 313534 313534 313534
       966 313535 313535 313535 313535
       967 313538 313538 313538 313538
       968 313540 313540 313540 313540
       969 313541 313541 313541 313541
       970 313543 313543 313543 313543
       971 313547 313547 313547 313547
       972 313554 313554 313554 313554
       973 313562 313562 313562 313562
       974 313564 313564 313564 313564
       975 313567 313567 313567 313567
       976 313570 313570 313570 313570
       977 313573 313573 313573 313573
       978 313574 313574 313574 313574
       979 313577 313577 313577 313577
       980 313579 313579 313579 313579
       981 313580 313580 313580 313580
       982 313582 313582 313582 313582
       983 313586 313586 313586 313586
       984 313593 313593 313593 313593
       985 313599 313599 313599 313599
       986 313601 313601 313601 313601
       987 313604 313604 313604 313604
       988 313608 313608 313608 313608
       989 313610 313610 313610 313610
       990 313611 313611 313611 313611
       991 313614 313614 313614 313614
       992 313616 313616 313616 313616
       993 313617 313617 313617 313617
       994 313619 313619 313619 313619
       995 313623 313623 313623 313623
       996 313630 313630 313630 313630
       997 313635 313635 313635 313635
       998 313640 313640 313640 313640
       999 313643 313643 313643 313643
       1000 313646 313646 313646 313646
       1001 313650 313650 313650 313650
       1002 313652 313652 313652 313652
       1003 313653 313653 313653 313653
       1004 313656 313656 313656 313656
       1005 313658 313658 313658 313658
       1006 313659 313659 313659 313659
       1007 313661 313661 313661 313661
       1008 313665 313665 313665 313665
       1009 313672 313672 313672 313672
       1010 313679 313679 313679 313679
       1011 313681 313681 313681 313681
       1012 313683 313683 313683 313683
       1013 313687 313687 313687 313687
       1014 313690 313690 313690 313690
       1015 313691 313691 313691 313691
       1016 313694 313694 313694 313694
       1017 313696 313696 313696 313696
       1018 313697 313697 313697 313697
       1019 313699 313699 313699 313699
       1020 313703 313703 313703 313703
       1021 313710 313710 313710 313710
       1022 313718 313718 313718 313718
       1023 313720 313720 313720 313720
       1024 313723 313723 313723 313723
       1025 313726 313726 313726 313726
       1026 313730 313730 313730 313730
       1027 313732 313732 313732 313732
       1028 313734 313734 313734 313734
       1029 313735 313735 313735 313735
       1030 313737 313737 313737 313737
       1031 313741 313741 313741 313741
       1032 313748 313748 313748 313748
       1033 313760 313760 313760 313760
       1034 313762 313762 313762 313762
       1035 313767 313767 313767 313767
       1036 313768 313768 313768 313768
       1037 313772 313772 313772 313772
       1038 313774 313774 313774 313774
       1039 313776 313776 313776 313776
       1040 313777 313777 313777 313777
       1041 313779 313779 313779 313779
       1042 313783 313783 313783 313783
       1043 313790 313790 313790 313790
       1044 313799 313799 313799 313799
       1045 313802 313802 313802 313802
       1046 313805 313805 313805 313805
       1047 313809 313809 313809 313809
       1048 313812 313812 313812 313812
       1049 313814 313814 313814 313814
       1050 313815 313815 313815 313815
       1051 313817 313817 313817 313817
       1052 313820 313820 313820 313820
       1053 313827 313827 313827 313827
       1054 313835 313835 313835 313835
       1055 313837 313837 313837 313837
       1056 313842 313842 313842 313842
       1057 313846 313846 313846 313846
       1058 313849 313849 313849 313849
       1059 313851 313851 313851 313851
       1060 313852 313852 313852 313852
       1061 313854 313854 313854 313854
       1062 313857 313857 313857 313857
       1063 313858 313858 313858 313858
       1064 313865 313865 313865 313865
       1065 313867 313867 313867 313867
       1066 313872 313872 313872 313872
       1067 313874 313874 313874 313874
       1068 313879 313879 313879 313879
       1069 313883 313883 313883 313883
       1070 313886 313886 313886 313886
       1071 313888 313888 313888 313888
       1072 313889 313889 313889 313889
       1073 313891 313891 313891 313891
       1074 313894 313894 313894 313894
       1075 313895 313895 313895 313895
       1076 313902 313902 313902 313902
       1077 313906 313906 313906 313906
       1078 313912 313912 313912 313912
       1079 313914 313914 313914 313914
       1080 313919 313919 313919 313919
       1081 313920 313920 313920 313920
       1082 313924 313924 313924 313924
       1083 313927 313927 313927 313927
       1084 313929 313929 313929 313929
       1085 313930 313930 313930 313930
       1086 313932 313932 313932 313932
       1087 313935 313935 313935 313935
       1088 313936 313936 313936 313936
       1089 313943 313943 313943 313943
       1090 313950 313950 313950 313950
       1091 313952 313952 313952 313952
       1092 313955 313955 313955 313955
       1093 313958 313958 313958 313958
       1094 313962 313962 313962 313962
       1095 313965 313965 313965 313965
       1096 313967 313967 313967 313967
       1097 313968 313968 313968 313968
       1098 313969 313969 313969 313969
       1099 313972 313972 313972 313972
       1100 313973 313973 313973 313973
       1101 313979 313979 313979 313979
       1102 313981 313981 313981 313981
       1103 313985 313985 313985 313985
       1104 313987 313987 313987 313987
       1105 313990 313990 313990 313990
       1106 313993 313993 313993 313993
       1107 313997 313997 313997 313997
       1108 314000 314000 314000 314000
       1109 314002 314002 314002 314002
       1110 314003 314003 314003 314003
       1111 314005 314005 314005 314005
       1112 314008 314008 314008 314008
       1113 314009 314009 314009 314009
       1114 314016 314016 314016 314016
       1115 314026 314026 314026 314026
       1116 314028 314028 314028 314028
       1117 314031 314031 314031 314031
       1118 314037 314037 314037 314037
       1119 314040 314040 314040 314040
       1120 314042 314042 314042 314042
       1121 314043 314043 314043 314043
       1122 314045 314045 314045 314045
       1123 314048 314048 314048 314048
       1124 314049 314049 314049 314049
       1125 314056 314056 314056 314056
       1126 314063 314063 314063 314063
       1127 314065 314065 314065 314065
       1128 314068 314068 314068 314068
       1129 314075 314075 314075 314075
       1130 314078 314078 314078 314078
       1131 314080 314080 314080 314080
       1132 314081 314081 314081 314081
       1133 314083 314083 314083 314083
       1134 314086 314086 314086 314086
       1135 314087 314087 314087 314087
       1136 314094 314094 314094 314094
       1137 314102 314102 314102 314102
       1138 314104 314104 314104 314104
       1139 314107 314107 314107 314107
       1140 314113 314113 314113 314113
       1141 314116 314116 314116 314116
       1142 314118 314118 314118 314118
       1143 314119 314119 314119 314119
       1144 314121 314121 314121 314121
       1145 314124 314124 314124 314124
       1146 314125 314125 314125 314125
       1147 314132 314132 314132 314132
       1148 314140 314140 314140 314140
       1149 314142 314142 314142 314142
       1150 314151 314151 314151 314151
       1151 314154 314154 314154 314154
       1152 314156 314156 314156 314156
       1153 314157 314157 314157 314157
       1154 314159 314159 314159 314159
       1155 314162 314162 314162 314162
       1156 314163 314163 314163 314163
       1157 314170 314170 314170 314170
       1158 314173 314173 314173 314173
       1159 314177 314177 314177 314177
       1160 314182 314182 314182 314182
       1161 314184 314184 314184 314184
       1162 314194 314194 314194 314194
       1163 314197 314197 314197 314197
       1164 314199 314199 314199 314199
       1165 314200 314200 314200 314200
       1166 314202 314202 314202 314202
       1167 314205 314205 314205 314205
       1168 314206 314206 314206 314206
       1169 314213 314213 314213 314213
       1170 314218 314218 314218 314218
       1171 314220 314220 314220 314220
       1172 314230 314230 314230 314230
       1173 314233 314233 314233 314233
       1174 314235 314235 314235 314235
       1175 314236 314236 314236 314236
       1176 314238 314238 314238 314238
       1177 314241 314241 314241 314241
       1178 314242 314242 314242 314242
       1179 314249 314249 314249 314249
       1180 314252 314252 314252 314252
       1181 314256 314256 314256 314256
       1182 314258 314258 314258 314258
       1183 314268 314268 314268 314268
       1184 314271 314271 314271 314271
       1185 314273 314273 314273 314273
       1186 314274 314274 314274 314274
       1187 314276 314276 314276 314276
       1188 314279 314279 314279 314279
       1189 314280 314280 314280 314280
       1190 314287 314287 314287 314287
       1191 314291 314291 314291 314291
       1192 314295 314295 314295 314295
       1193 314297 314297 314297 314297
       1194 314307 314307 314307 314307
       1195 314310 314310 314310 314310
       1196 314312 314312 314312 314312
       1197 314315 314315 314315 314315
       1198 314318 314318 314318 314318
       1199 314319 314319 314319 314319
       1200 314326 314326 314326 314326
       1201 314329 314329 314329 314329
       1202 314330 314330 314330 314330
       1203 314331 314331 314331 314331
       1204 314335 314335 314335 314335
       1205 314337 314337 314337 314337
       1206 314347 314347 314347 314347
       1207 314350 314350 314350 314350
       1208 314352 314352 314352 314352
       1209 314355 314355 314355 314355
       1210 314358 314358 314358 314358
       1211 314359 314359 314359 314359
       1212 314366 314366 314366 314366
       1213 314368 314368 314368 314368
       1214 314371 314371 314371 314371
       1215 314373 314373 314373 314373
       1216 314383 314383 314383 314383
       1217 314385 314385 314385 314385
       1218 314387 314387 314387 314387
       1219 314390 314390 314390 314390
       1220 314393 314393 314393 314393
       1221 314394 314394 314394 314394
       1222 314401 314401 314401 314401
       1223 314404 314404 314404 314404
       1224 314406 314406 314406 314406
       1225 314407 314407 314407 314407
       1226 314411 314411 314411 314411
       1227 314413 314413 314413 314413
       1228 314423 314423 314423 314423
       1229 314426 314426 314426 314426
       1230 314428 314428 314428 314428
       1231 314431 314431 314431 314431
       1232 314434 314434 314434 314434
       1233 314435 314435 314435 314435
       1234 314442 314442 314442 314442
       1235 314444 314444 314444 314444
       1236 314447 314447 314447 314447
       1237 314448 314448 314448 314448
       1238 314449 314449 314449 314449
       1239 314454 314454 314454 314454
       1240 314456 314456 314456 314456
       1241 314466 314466 314466 314466
       1242 314469 314469 314469 314469
       1243 314471 314471 314471 314471
       1244 314474 314474 314474 314474
       1245 314477 314477 314477 314477
       1246 314478 314478 314478 314478
       1247 314485 314485 314485 314485
       1248 314489 314489 314489 314489
       1249 314490 314490 314490 314490
       1250 314494 314494 314494 314494
       1251 314496 314496 314496 314496
       1252 314506 314506 314506 314506
       1253 314509 314509 314509 314509
       1254 314511 314511 314511 314511
       1255 314514 314514 314514 314514
       1256 314517 314517 314517 314517
       1257 314518 314518 314518 314518
       1258 314525 314525 314525 314525
       1259 314527 314527 314527 314527
       1260 314532 314532 314532 314532
       1261 314534 314534 314534 314534
       1262 314544 314544 314544 314544
       1263 314548 314548 314548 314548
       1264 314551 314551 314551 314551
       1265 314554 314554 314554 314554
       1266 314555 314555 314555 314555
       1267 314562 314562 314562 314562
       1268 314564 314564 314564 314564
       1269 314566 314566 314566 314566
       1270 314570 314570 314570 314570
       1271 314572 314572 314572 314572
       1272 314582 314582 314582 314582
       1273 314586 314586 314586 314586
       1274 314589 314589 314589 314589
       1275 314592 314592 314592 314592
       1276 314593 314593 314593 314593
       1277 314599 314599 314599 314599
       1278 314601 314601 314601 314601
       1279 314602 314602 314602 314602
       1280 314606 314606 314606 314606
       1281 314608 314608 314608 314608
       1282 314618 314618 314618 314618
       1283 314622 314622 314622 314622
       1284 314625 314625 314625 314625
       1285 314628 314628 314628 314628
       1286 314629 314629 314629 314629
       1287 314635 314635 314635 314635
       1288 314640 314640 314640 314640
       1289 314643 314643 314643 314643
       1290 314645 314645 314645 314645
       1291 314655 314655 314655 314655
       1292 314660 314660 314660 314660
       1293 314663 314663 314663 314663
       1294 314666 314666 314666 314666
       1295 314667 314667 314667 314667
       1296 314672 314672 314672 314672
       1297 314674 314674 314674 314674
       1298 314677 314677 314677 314677
       1299 314681 314681 314681 314681
       1300 314682 314682 314682 314682
       1301 314691 314691 314691 314691
       1302 314696 314696 314696 314696
       1303 314699 314699 314699 314699
       1304 314702 314702 314702 314702
       1305 314703 314703 314703 314703
       1306 314707 314707 314707 314707
       1307 314710 314710 314710 314710
       1308 314714 314714 314714 314714
       1309 314718 314718 314718 314718
       1310 314720 314720 314720 314720
       1311 314730 314730 314730 314730
       1312 314734 314734 314734 314734
       1313 314737 314737 314737 314737
       1314 314740 314740 314740 314740
       1315 314741 314741 314741 314741
       1316 314748 314748 314748 314748
       1317 314751 314751 314751 314751
       1318 314755 314755 314755 314755
       1319 314756 314756 314756 314756
       1320 314766 314766 314766 314766
       1321 314771 314771 314771 314771
       1322 314774 314774 314774 314774
       1323 314777 314777 314777 314777
       1324 314778 314778 314778 314778
       1325 314785 314785 314785 314785
       1326 314791 314791 314791 314791
       1327 314802 314802 314802 314802
       1328 314807 314807 314807 314807
       1329 314810 314810 314810 314810
       1330 314811 314811 314811 314811
       1331 314813 314813 314813 314813
       1332 314814 314814 314814 314814
       1333 314821 314821 314821 314821
       1334 314824 314824 314824 314824
       1335 314825 314825 314825 314825
       1336 314826 314826 314826 314826
       1337 314830 314830 314830 314830
       1338 314832 314832 314832 314832
       1339 314841 314841 314841 314841
       1340 314846 314846 314846 314846
       1341 314849 314849 314849 314849
       1342 314851 314851 314851 314851
       1343 314852 314852 314852 314852
       1344 314859 314859 314859 314859
       1345 314861 314861 314861 314861
       1346 314865 314865 314865 314865
       1347 314867 314867 314867 314867
       1348 314872 314872 314872 314872
       1349 314877 314877 314877 314877
       1350 314882 314882 314882 314882
       1351 314885 314885 314885 314885
       1352 314887 314887 314887 314887
       1353 314888 314888 314888 314888
       1354 314895 314895 314895 314895
       1355 314897 314897 314897 314897
       1356 314898 314898 314898 314898
       1357 314900 314900 314900 314900
       1358 314903 314903 314903 314903
       1359 314905 314905 314905 314905
       1360 314910 314910 314910 314910
       1361 314915 314915 314915 314915
       1362 314920 314920 314920 314920
       1363 314923 314923 314923 314923
       1364 314926 314926 314926 314926
       1365 314927 314927 314927 314927
       1366 314934 314934 314934 314934
       1367 314936 314936 314936 314936
       1368 314939 314939 314939 314939
       1369 314943 314943 314943 314943
       1370 314945 314945 314945 314945
       1371 314950 314950 314950 314950
       1372 314955 314955 314955 314955
       1373 314960 314960 314960 314960
       1374 314963 314963 314963 314963
       1375 314966 314966 314966 314966
       1376 314967 314967 314967 314967
       1377 314974 314974 314974 314974
       1378 314976 314976 314976 314976
       1379 314977 314977 314977 314977
       1380 314981 314981 314981 314981
       1381 314983 314983 314983 314983
       1382 314988 314988 314988 314988
       1383 314993 314993 314993 314993
       1384 314998 314998 314998 314998
       1385 315001 315001 315001 315001
       1386 315004 315004 315004 315004
       1387 315005 315005 315005 315005
       1388 315012 315012 315012 315012
       1389 315015 315015 315015 315015
       1390 315016 315016 315016 315016
       1391 315017 315017 315017 315017
       1392 315021 315021 315021 315021
       1393 315023 315023 315023 315023
       1394 315027 315027 315027 315027
       1395 315032 315032 315032 315032
       1396 315037 315037 315037 315037
       1397 315040 315040 315040 315040
       1398 315043 315043 315043 315043
       1399 315044 315044 315044 315044
       1400 315051 315051 315051 315051
       1401 315055 315055 315055 315055
       1402 315056 315056 315056 315056
       1403 315060 315060 315060 315060
       1404 315062 315062 315062 315062
       1405 315067 315067 315067 315067
       1406 315072 315072 315072 315072
       1407 315077 315077 315077 315077
       1408 315080 315080 315080 315080
       1409 315083 315083 315083 315083
       1410 315084 315084 315084 315084
       1411 315087 315087 315087 315087
       1412 315091 315091 315091 315091
       1413 315094 315094 315094 315094
       1414 315098 315098 315098 315098
       1415 315100 315100 315100 315100
       1416 315105 315105 315105 315105
       1417 315109 315109 315109 315109
       1418 315114 315114 315114 315114
       1419 315117 315117 315117 315117
       1420 315120 315120 315120 315120
       1421 315121 315121 315121 315121
       1422 315124 315124 315124 315124
       1423 315128 315128 315128 315128
       1424 315130 315130 315130 315130
       1425 315133 315133 315133 315133
       1426 315135 315135 315135 315135
       1427 315140 315140 315140 315140
       1428 315145 315145 315145 315145
       1429 315150 315150 315150 315150
       1430 315153 315153 315153 315153
       1431 315156 315156 315156 315156
       1432 315157 315157 315157 315157
       1433 315160 315160 315160 315160
       1434 315164 315164 315164 315164
       1435 315166 315166 315166 315166
       1436 315167 315167 315167 315167
       1437 315171 315171 315171 315171
       1438 315173 315173 315173 315173
       1439 315178 315178 315178 315178
       1440 315183 315183 315183 315183
       1441 315188 315188 315188 315188
       1442 315191 315191 315191 315191
       1443 315194 315194 315194 315194
       1444 315195 315195 315195 315195
       1445 315198 315198 315198 315198
       1446 315202 315202 315202 315202
       1447 315204 315204 315204 315204
       1448 315205 315205 315205 315205
       1449 315209 315209 315209 315209
       1450 315211 315211 315211 315211
       1451 315214 315214 315214 315214
       1452 315221 315221 315221 315221
       1453 315226 315226 315226 315226
       1454 315229 315229 315229 315229
       1455 315232 315232 315232 315232
       1456 315233 315233 315233 315233
       1457 315236 315236 315236 315236
       1458 315240 315240 315240 315240
       1459 315242 315242 315242 315242
       1460 315246 315246 315246 315246
       1461 315248 315248 315248 315248
       1462 315252 315252 315252 315252
       1463 315257 315257 315257 315257
       1464 315262 315262 315262 315262
       1465 315265 315265 315265 315265
       1466 315268 315268 315268 315268
       1467 315269 315269 315269 315269
       1468 315272 315272 315272 315272
       1469 315276 315276 315276 315276
       1470 315278 315278 315278 315278
       1471 315280 315280 315280 315280
       1472 315281 315281 315281 315281
       1473 315285 315285 315285 315285
       1474 315287 315287 315287 315287
       1475 315292 315292 315292 315292
       1476 315297 315297 315297 315297
       1477 315302 315302 315302 315302
       1478 315305 315305 315305 315305
       1479 315308 315308 315308 315308
       1480 315309 315309 315309 315309
       1481 315312 315312 315312 315312
       1482 315316 315316 315316 315316
       1483 315318 315318 315318 315318
       1484 315322 315322 315322 315322
       1485 315324 315324 315324 315324
       1486 315329 315329 315329 315329
       1487 315334 315334 315334 315334
       1488 315339 315339 315339 315339
       1489 315342 315342 315342 315342
       1490 315345 315345 315345 315345
       1491 315346 315346 315346 315346
       1492 315349 315349 315349 315349
       1493 315353 315353 315353 315353
       1494 315356 315356 315356 315356
       1495 315361 315361 315361 315361
       1496 315362 315362 315362 315362
       1497 315370 315370 315370 315370
       1498 315375 315375 315375 315375
       1499 315378 315378 315378 315378
       1500 315381 315381 315381 315381
       1501 315382 315382 315382 315382
       1502 315385 315385 315385 315385
       1503 315389 315389 315389 315389
       1504 315392 315392 315392 315392
       1505 315393 315393 315393 315393
       1506 315394 315394 315394 315394
       1507 315395 315395 315395 315395
       1508 315401 315401 315401 315401
       1509 315406 315406 315406 315406
       1510 315411 315411 315411 315411
       1511 315416 315416 315416 315416
       1512 315419 315419 315419 315419
       1513 315422 315422 315422 315422
       1514 315423 315423 315423 315423
       1515 315426 315426 315426 315426
       1516 315430 315430 315430 315430
       1517 315432 315432 315432 315432
       1518 315434 315434 315434 315434
       1519 315441 315441 315441 315441
       1520 315445 315445 315445 315445
       1521 315450 315450 315450 315450
       1522 315455 315455 315455 315455
       1523 315458 315458 315458 315458
       1524 315461 315461 315461 315461
       1525 315462 315462 315462 315462
       1526 315465 315465 315465 315465
       1527 315471 315471 315471 315471
       1528 315478 315478 315478 315478
       1529 315482 315482 315482 315482
       1530 315487 315487 315487 315487
       1531 315492 315492 315492 315492
       1532 315495 315495 315495 315495
       1533 315498 315498 315498 315498
       1534 315499 315499 315499 315499
       1535 315502 315502 315502 315502
       1536 315509 315509 315509 315509
       1537 315516 315516 315516 315516
       1538 315521 315521 315521 315521
       1539 315526 315526 315526 315526
       1540 315531 315531 315531 315531
       1541 315534 315534 315534 315534
       1542 315537 315537 315537 315537
       1543 315538 315538 315538 315538
       1544 315541 315541 315541 315541
       1545 315547 315547 315547 315547
       1546 315550 315550 315550 315550
       1547 315559 315559 315559 315559
       1548 315561 315561 315561 315561
       1549 315566 315566 315566 315566
       1550 315571 315571 315571 315571
       1551 315573 315573 315573 315573
       1552 315576 315576 315576 315576
       1553 315577 315577 315577 315577
       1554 315580 315580 315580 315580
       1555 315587 315587 315587 315587
       1556 315593 315593 315593 315593
       1557 315598 315598 315598 315598
       1558 315603 315603 315603 315603
       1559 315608 315608 315608 315608
       1560 315611 315611 315611 315611
       1561 315614 315614 315614 315614
       1562 315615 315615 315615 315615
       1563 315618 315618 315618 315618
       1564 315625 315625 315625 315625
       1565 315626 315626 315626 315626
       1566 315631 315631 315631 315631
       1567 315636 315636 315636 315636
       1568 315641 315641 315641 315641
       1569 315646 315646 315646 315646
       1570 315649 315649 315649 315649
       1571 315652 315652 315652 315652
       1572 315653 315653 315653 315653
       1573 315656 315656 315656 315656
       1574 315663 315663 315663 315663
       1575 315666 315666 315666 315666
       1576 315672 315672 315672 315672
       1577 315677 315677 315677 315677
       1578 315682 315682 315682 315682
       1579 315687 315687 315687 315687
       1580 315690 315690 315690 315690
       1581 315693 315693 315693 315693
       1582 315694 315694 315694 315694
       1583 315697 315697 315697 315697
       1584 315706 315706 315706 315706
       1585 315712 315712 315712 315712
       1586 315717 315717 315717 315717
       1587 315722 315722 315722 315722
       1588 315727 315727 315727 315727
       1589 315730 315730 315730 315730
       1590 315733 315733 315733 315733
       1591 315734 315734 315734 315734
       1592 315737 315737 315737 315737
       1593 315743 315743 315743 315743
       1594 315749 315749 315749 315749
       1595 315754 315754 315754 315754
       1596 315759 315759 315759 315759
       1597 315764 315764 315764 315764
       1598 315767 315767 315767 315767
       1599 315770 315770 315770 315770
       1600 315771 315771 315771 315771
       1601 315774 315774 315774 315774
       1602 315781 315781 315781 315781
       1603 315783 315783 315783 315783
       1604 315789 315789 315789 315789
       1605 315794 315794 315794 315794
       1606 315799 315799 315799 315799
       1607 315804 315804 315804 315804
       1608 315807 315807 315807 315807
       1609 315810 315810 315810 315810
       1610 315811 315811 315811 315811
       1611 315814 315814 315814 315814
       1612 315821 315821 315821 315821
       1613 315827 315827 315827 315827
       1614 315832 315832 315832 315832
       1615 315837 315837 315837 315837
       1616 315842 315842 315842 315842
       1617 315845 315845 315845 315845
       1618 315848 315848 315848 315848
       1619 315849 315849 315849 315849
       1620 315852 315852 315852 315852
       1621 315860 315860 315860 315860
       1622 315865 315865 315865 315865
       1623 315870 315870 315870 315870
       1624 315875 315875 315875 315875
       1625 315880 315880 315880 315880
       1626 315883 315883 315883 315883
       1627 315886 315886 315886 315886
       1628 315887 315887 315887 315887
       1629 315890 315890 315890 315890
       1630 315896 315896 315896 315896
       1631 315905 315905 315905 315905
       1632 315910 315910 315910 315910
       1633 315915 315915 315915 315915
       1634 315920 315920 315920 315920
       1635 315923 315923 315923 315923
       1636 315926 315926 315926 315926
       1637 315927 315927 315927 315927
       1638 315930 315930 315930 315930
       1639 315941 315941 315941 315941
       1640 315946 315946 315946 315946
       1641 315951 315951 315951 315951
       1642 315956 315956 315956 315956
       1643 315959 315959 315959 315959
       1644 315962 315962 315962 315962
       1645 315963 315963 315963 315963
       1646 315966 315966 315966 315966
       1647 315973 315973 315973 315973
       1648 315975 315975 315975 315975
       1649 315980 315980 315980 315980
       1650 315989 315989 315989 315989
       1651 315994 315994 315994 315994
       1652 315997 315997 315997 315997
       1653 316000 316000 316000 316000
       1654 316001 316001 316001 316001
       1655 316004 316004 316004 316004
       1656 316015 316015 316015 316015
       1657 316020 316020 316020 316020
       1658 316025 316025 316025 316025
       1659 316030 316030 316030 316030
       1660 316035 316035 316035 316035
       1661 316038 316038 316038 316038
       1662 316041 316041 316041 316041
       1663 316042 316042 316042 316042
       1664 316045 316045 316045 316045
       1665 316052 316052 316052 316052
       1666 316060 316060 316060 316060
       1667 316062 316062 316062 316062
       1668 316067 316067 316067 316067
       1669 316072 316072 316072 316072
       1670 316075 316075 316075 316075
       1671 316078 316078 316078 316078
       1672 316079 316079 316079 316079
       1673 316082 316082 316082 316082
       1674 316090 316090 316090 316090
       1675 316099 316099 316099 316099
       1676 316104 316104 316104 316104
       1677 316109 316109 316109 316109
       1678 316112 316112 316112 316112
       1679 316115 316115 316115 316115
       1680 316116 316116 316116 316116
       1681 316119 316119 316119 316119
       1682 316126 316126 316126 316126
       1683 316130 316130 316130 316130
       1684 316144 316144 316144 316144
       1685 316149 316149 316149 316149
       1686 316152 316152 316152 316152
       1687 316155 316155 316155 316155
       1688 316156 316156 316156 316156
       1689 316159 316159 316159 316159
       1690 316168 316168 316168 316168
       1691 316175 316175 316175 316175
       1692 316182 316182 316182 316182
       1693 316187 316187 316187 316187
       1694 316190 316190 316190 316190
       1695 316193 316193 316193 316193
       1696 316194 316194 316194 316194
       1697 316197 316197 316197 316197
       1698 316205 316205 316205 316205
       1699 316207 316207 316207 316207
       1700 316222 316222 316222 316222
       1701 316227 316227 316227 316227
       1702 316230 316230 316230 316230
       1703 316233 316233 316233 316233
       1704 316234 316234 316234 316234
       1705 316237 316237 316237 316237
       1706 316243 316243 316243 316243
       1707 316244 316244 316244 316244
       1708 316258 316258 316258 316258
       1709 316263 316263 316263 316263
       1710 316266 316266 316266 316266
       1711 316269 316269 316269 316269
       1712 316270 316270 316270 316270
       1713 316273 316273 316273 316273
       1714 316292 316292 316292 316292
       1715 316297 316297 316297 316297
       1716 316300 316300 316300 316300
       1717 316303 316303 316303 316303
       1718 316304 316304 316304 316304
       1719 316307 316307 316307 316307
       1720 316327 316327 316327 316327
       1721 316332 316332 316332 316332
       1722 316335 316335 316335 316335
       1723 316338 316338 316338 316338
       1724 316339 316339 316339 316339
       1725 316342 316342 316342 316342
       1726 316362 316362 316362 316362
       1727 316367 316367 316367 316367
       1728 316370 316370 316370 316370
       1729 316373 316373 316373 316373
       1730 316374 316374 316374 316374
       1731 316377 316377 316377 316377
       1732 316398 316398 316398 316398
       1733 316403 316403 316403 316403
       1734 316406 316406 316406 316406
       1735 316409 316409 316409 316409
       1736 316410 316410 316410 316410
       1737 316413 316413 316413 316413
       1738 316435 316435 316435 316435
       1739 316436 316436 316436 316436
       1740 316441 316441 316441 316441
       1741 316444 316444 316444 316444
       1742 316447 316447 316447 316447
       1743 316448 316448 316448 316448
       1744 316451 316451 316451 316451
       1745 316469 316469 316469 316469
       1746 316471 316471 316471 316471
       1747 316475 316475 316475 316475
       1748 316478 316478 316478 316478
       1749 316481 316481 316481 316481
       1750 316482 316482 316482 316482
       1751 316485 316485 316485 316485
       1752 316504 316504 316504 316504
       1753 316507 316507 316507 316507
       1754 316508 316508 316508 316508
       1755 316513 316513 316513 316513
       1756 316516 316516 316516 316516
       1757 316519 316519 316519 316519
       1758 316520 316520 316520 316520
       1759 316523 316523 316523 316523
       1760 316530 316530 316530 316530
       1761 316532 316532 316532 316532
       1762 316544 316544 316544 316544
       1763 316547 316547 316547 316547
       1764 316552 316552 316552 316552
       1765 316555 316555 316555 316555
       1766 316558 316558 316558 316558
       1767 316559 316559 316559 316559
       1768 316562 316562 316562 316562
       1769 316580 316580 316580 316580
       1770 316582 316582 316582 316582
       1771 316584 316584 316584 316584
       1772 316585 316585 316585 316585
       1773 316590 316590 316590 316590
       1774 316593 316593 316593 316593
       1775 316596 316596 316596 316596
       1776 316597 316597 316597 316597
       1777 316600 316600 316600 316600
       1778 316605 316605 316605 316605
       1779 316610 316610 316610 316610
       1780 316620 316620 316620 316620
       1781 316621 316621 316621 316621
       1782 316623 316623 316623 316623
       1783 316624 316624 316624 316624
       1784 316629 316629 316629 316629
       1785 316632 316632 316632 316632
       1786 316635 316635 316635 316635
       1787 316636 316636 316636 316636
       1788 316639 316639 316639 316639
       1789 316644 316644 316644 316644
       1790 316648 316648 316648 316648
       1791 316649 316649 316649 316649
       1792 316659 316659 316659 316659
       1793 316660 316660 316660 316660
       1794 316662 316662 316662 316662
       1795 316663 316663 316663 316663
       1796 316668 316668 316668 316668
       1797 316671 316671 316671 316671
       1798 316674 316674 316674 316674
       1799 316675 316675 316675 316675
       1800 316678 316678 316678 316678
       1801 316683 316683 316683 316683
       1802 316685 316685 316685 316685
       1803 316686 316686 316686 316686
       1804 316693 316693 316693 316693
       1805 316696 316696 316696 316696
       1806 316698 316698 316698 316698
       1807 316699 316699 316699 316699
       1808 316704 316704 316704 316704
       1809 316707 316707 316707 316707
       1810 316710 316710 316710 316710
       1811 316711 316711 316711 316711
       1812 316714 316714 316714 316714
       1813 316719 316719 316719 316719
       1814 316724 316724 316724 316724
       1815 316725 316725 316725 316725
       1816 316733 316733 316733 316733
       1817 316735 316735 316735 316735
       1818 316736 316736 316736 316736
       1819 316739 316739 316739 316739
       1820 316744 316744 316744 316744
       1821 316747 316747 316747 316747
       1822 316750 316750 316750 316750
       1823 316751 316751 316751 316751
       1824 316754 316754 316754 316754
       1825 316759 316759 316759 316759
       1826 316763 316763 316763 316763
       1827 316764 316764 316764 316764
       1828 316774 316774 316774 316774
       1829 316775 316775 316775 316775
       1830 316777 316777 316777 316777
       1831 316778 316778 316778 316778
       1832 316783 316783 316783 316783
       1833 316786 316786 316786 316786
       1834 316789 316789 316789 316789
       1835 316790 316790 316790 316790
       1836 316793 316793 316793 316793
       1837 316798 316798 316798 316798
       1838 316799 316799 316799 316799
       1839 316803 316803 316803 316803
       1840 316811 316811 316811 316811
       1841 316814 316814 316814 316814
       1842 316816 316816 316816 316816
       1843 316817 316817 316817 316817
       1844 316822 316822 316822 316822
       1845 316825 316825 316825 316825
       1846 316828 316828 316828 316828
       1847 316829 316829 316829 316829
       1848 316832 316832 316832 316832
       1849 316837 316837 316837 316837
       1850 316838 316838 316838 316838
       1851 316839 316839 316839 316839
       1852 316843 316843 316843 316843
       1853 316854 316854 316854 316854
       1854 316855 316855 316855 316855
       1855 316857 316857 316857 316857
       1856 316858 316858 316858 316858
       1857 316863 316863 316863 316863
       1858 316866 316866 316866 316866
       1859 316869 316869 316869 316869
       1860 316870 316870 316870 316870
       1861 316873 316873 316873 316873
       1862 316878 316878 316878 316878
       1863 316886 316886 316886 316886
       1864 316895 316895 316895 316895
       1865 316896 316896 316896 316896
       1866 316898 316898 316898 316898
       1867 316899 316899 316899 316899
       1868 316906 316906 316906 316906
       1869 316909 316909 316909 316909
       1870 316912 316912 316912 316912
       1871 316917 316917 316917 316917
       1872 316918 316918 316918 316918
       1873 316923 316923 316923 316923
       1874 316927 316927 316927 316927
       1875 316932 316932 316932 316932
       1876 316935 316935 316935 316935
       1877 316937 316937 316937 316937
[...]
     number of failed solid  elements = 0
     number of failed beam   elements = 0
     number of failed shell  elements = 0
     number of failed tshell elements = 0
 f a i l e d   e l e m e n t   r e p o r t  time=  3.8448E-05
     number of failed solid  elements = 0
     number of failed beam   elements = 0
     number of failed shell  elements = 0
     number of failed tshell elements = 0
 f a i l e d   e l e m e n t   r e p o r t  time=  3.8520E-05
     number of failed solid  elements = 0
     number of failed beam   elements = 0
     number of failed shell  elements = 0
     number of failed tshell elements = 0
 f a i l e d   e l e m e n t   r e p o r t  time=  3.8879E-05
     number of failed solid  elements = 0
     number of failed beam   elements = 0
     number of failed shell  elements = 0
     number of failed tshell elements = 0
 f a i l e d   e l e m e n t   r e p o r t  time=  3.9129E-05
     number of failed solid  elements = 0
     number of failed beam   elements = 0
     number of failed shell  elements = 0
     number of failed tshell elements = 0
 f a i l e d   e l e m e n t   r e p o r t  time=  3.9207E-05
     number of failed solid  elements = 0
     number of failed beam   elements = 0
     number of failed shell  elements = 0
     number of failed tshell elements = 0
 f a i l e d   e l e m e n t   r e p o r t  time=  3.9234E-05
     number of failed solid  elements = 0
     number of failed beam   elements = 0
     number of failed shell  elements = 0
     number of failed tshell elements = 0
 f a i l e d   e l e m e n t   r e p o r t  time=  3.9243E-05
     number of failed solid  elements = 0
     number of failed beam   elements = 0
     number of failed shell  elements = 0
     number of failed tshell elements = 0
 f a i l e d   e l e m e n t   r e p o r t  time=  3.9345E-05
     number of failed solid  elements = 0
     number of failed beam   elements = 0
     number of failed shell  elements = 0
     number of failed tshell elements = 0
 f a i l e d   e l e m e n t   r e p o r t  time=  3.9826E-05
     number of failed solid  elements = 0
     number of failed beam   elements = 0
     number of failed shell  elements = 0
     number of failed tshell elements = 0
 f a i l e d   e l e m e n t   r e p o r t  time=  3.9832E-05
     number of failed solid  elements = 0
     number of failed beam   elements = 0
     number of failed shell  elements = 0
     number of failed tshell elements = 0
 f a i l e d   e l e m e n t   r e p o r t  time=  3.9907E-05
     number of failed solid  elements = 0
     number of failed beam   elements = 0
     number of failed shell  elements = 0
     number of failed tshell elements = 0
 f a i l e d   e l e m e n t   r e p o r t  time=  3.9916E-05
     number of failed solid  elements = 0
     number of failed beam   elements = 0
     number of failed shell  elements = 0
     number of failed tshell elements = 0
 f a i l e d   e l e m e n t   r e p o r t  time=  3.9985E-05
     number of failed solid  elements = 0
     number of failed beam   elements = 0
     number of failed shell  elements = 0
     number of failed tshell elements = 0
 f a i l e d   e l e m e n t   r e p o r t  time=  4.0259E-05
     number of failed solid  elements = 0
     number of failed beam   elements = 0
     number of failed shell  elements = 0
     number of failed tshell elements = 0
 f a i l e d   e l e m e n t   r e p o r t  time=  4.0528E-05
     number of failed solid  elements = 0
     number of failed beam   elements = 0
     number of failed shell  elements = 0
     number of failed tshell elements = 0
 f a i l e d   e l e m e n t   r e p o r t  time=  4.0579E-05
     number of failed solid  elements = 0
     number of failed beam   elements = 0
     number of failed shell  elements = 0
     number of failed tshell elements = 0
 f a i l e d   e l e m e n t   r e p o r t  time=  4.0852E-05
     number of failed solid  elements = 0
     number of failed beam   elements = 0
     number of failed shell  elements = 0
     number of failed tshell elements = 0
 f a i l e d   e l e m e n t   r e p o r t  time=  4.1017E-05
     number of failed solid  elements = 0
     number of failed beam   elements = 0
     number of failed shell  elements = 0
     number of failed tshell elements = 0
 f a i l e d   e l e m e n t   r e p o r t  time=  4.1103E-05
     number of failed solid  elements = 0
     number of failed beam   elements = 0
     number of failed shell  elements = 0
     number of failed tshell elements = 0
 f a i l e d   e l e m e n t   r e p o r t  time=  4.1164E-05
     number of failed solid  elements = 0
     number of failed beam   elements = 0
     number of failed shell  elements = 0
     number of failed tshell elements = 0
 f a i l e d   e l e m e n t   r e p o r t  time=  4.1183E-05
     number of failed solid  elements = 0
     number of failed beam   elements = 0
     number of failed shell  elements = 0
     number of failed tshell elements = 0
 f a i l e d   e l e m e n t   r e p o r t  time=  4.1380E-05
     number of failed solid  elements = 0
     number of failed beam   elements = 0
     number of failed shell  elements = 0
     number of failed tshell elements = 0
 f a i l e d   e l e m e n t   r e p o r t  time=  4.1457E-05
     number of failed solid  elements = 0
     number of failed beam   elements = 0
     number of failed shell  elements = 0
     number of failed tshell elements = 0
 f a i l e d   e l e m e n t   r e p o r t  time=  4.1479E-05
     number of failed solid  elements = 0
     number of failed beam   elements = 0
     number of failed shell  elements = 0
     number of failed tshell elements = 0
 f a i l e d   e l e m e n t   r e p o r t  time=  4.1500E-05
     number of failed solid  elements = 0
     number of failed beam   elements = 0
     number of failed shell  elements = 0
     number of failed tshell elements = 0
 f a i l e d   e l e m e n t   r e p o r t  time=  4.1919E-05
     number of failed solid  elements = 0
     number of failed beam   elements = 0
     number of failed shell  elements = 0
     number of failed tshell elements = 0
 f a i l e d   e l e m e n t   r e p o r t  time=  4.2203E-05
     number of failed solid  elements = 0
     number of failed beam   elements = 0
     number of failed shell  elements = 0
     number of failed tshell elements = 0
 f a i l e d   e l e m e n t   r e p o r t  time=  4.2216E-05
     number of failed solid  elements = 0
     number of failed beam   elements = 0
     number of failed shell  elements = 0
     number of failed tshell elements = 0
 f a i l e d   e l e m e n t   r e p o r t  time=  4.2422E-05
     number of failed solid  elements = 0
     number of failed beam   elements = 0
     number of failed shell  elements = 0
     number of failed tshell elements = 0
 f a i l e d   e l e m e n t   r e p o r t  time=  4.2673E-05
     number of failed solid  elements = 0
     number of failed beam   elements = 0
     number of failed shell  elements = 0
     number of failed tshell elements = 0
 f a i l e d   e l e m e n t   r e p o r t  time=  4.2694E-05
     number of failed solid  elements = 0
     number of failed beam   elements = 0
     number of failed shell  elements = 0
     number of failed tshell elements = 0
 f a i l e d   e l e m e n t   r e p o r t  time=  4.2696E-05
     number of failed solid  elements = 0
     number of failed beam   elements = 0
     number of failed shell  elements = 0
     number of failed tshell elements = 0
 f a i l e d   e l e m e n t   r e p o r t  time=  4.3153E-05
     number of failed solid  elements = 0
     number of failed beam   elements = 0
     number of failed shell  elements = 0
     number of failed tshell elements = 0
 f a i l e d   e l e m e n t   r e p o r t  time=  4.3473E-05
     number of failed solid  elements = 0
     number of failed beam   elements = 0
     number of failed shell  elements = 0
     number of failed tshell elements = 0
 f a i l e d   e l e m e n t   r e p o r t  time=  4.3619E-05
     number of failed solid  elements = 0
     number of failed beam   elements = 0
     number of failed shell  elements = 0
     number of failed tshell elements = 0
 f a i l e d   e l e m e n t   r e p o r t  time=  4.3940E-05
     number of failed solid  elements = 0
     number of failed beam   elements = 0
     number of failed shell  elements = 0
     number of failed tshell elements = 0
 f a i l e d   e l e m e n t   r e p o r t  time=  4.4013E-05
     number of failed solid  elements = 0
     number of failed beam   elements = 0
     number of failed shell  elements = 0
     number of failed tshell elements = 0
 f a i l e d   e l e m e n t   r e p o r t  time=  4.4037E-05
     number of failed solid  elements = 0
     number of failed beam   elements = 0
     number of failed shell  elements = 0
     number of failed tshell elements = 0
 f a i l e d   e l e m e n t   r e p o r t  time=  4.4567E-05
     number of failed solid  elements = 0
     number of failed beam   elements = 0
     number of failed shell  elements = 0
     number of failed tshell elements = 0
 f a i l e d   e l e m e n t   r e p o r t  time=  4.5075E-05
     number of failed solid  elements = 0
     number of failed beam   elements = 0
     number of failed shell  elements = 0
     number of failed tshell elements = 0
 f a i l e d   e l e m e n t   r e p o r t  time=  4.5833E-05
     number of failed solid  elements = 0
     number of failed beam   elements = 0
     number of failed shell  elements = 0
     number of failed tshell elements = 0
 f a i l e d   e l e m e n t   r e p o r t  time=  4.6573E-05
     number of failed solid  elements = 0
     number of failed beam   elements = 0
     number of failed shell  elements = 0
     number of failed tshell elements = 0
 f a i l e d   e l e m e n t   r e p o r t  time=  4.7133E-05
     number of failed solid  elements = 0
     number of failed beam   elements = 0
     number of failed shell  elements = 0
     number of failed tshell elements = 0
 f a i l e d   e l e m e n t   r e p o r t  time=  4.7958E-05
     number of failed solid  elements = 0
     number of failed beam   elements = 0
     number of failed shell  elements = 0
     number of failed tshell elements = 0
 f a i l e d   e l e m e n t   r e p o r t  time=  4.8527E-05
     number of failed solid  elements = 0
     number of failed beam   elements = 0
     number of failed shell  elements = 0
     number of failed tshell elements = 0
 f a i l e d   e l e m e n t   r e p o r t  time=  4.8974E-05
     number of failed solid  elements = 0
     number of failed beam   elements = 0
     number of failed shell  elements = 0
     number of failed tshell elements = 0
 f a i l e d   e l e m e n t   r e p o r t  time=  4.9442E-05
     number of failed solid  elements = 0
     number of failed beam   elements = 0
     number of failed shell  elements = 0
     number of failed tshell elements = 0
 f a i l e d   e l e m e n t   r e p o r t  time=  4.9573E-05
     number of failed solid  elements = 0
     number of failed beam   elements = 0
     number of failed shell  elements = 0
     number of failed tshell elements = 0
 f a i l e d   e l e m e n t   r e p o r t  time=  4.9595E-05
     number of failed solid  elements = 0
     number of failed beam   elements = 0
     number of failed shell  elements = 0
     number of failed tshell elements = 0
 f a i l e d   e l e m e n t   r e p o r t  time=  5.2175E-05
     number of failed solid  elements = 0
     number of failed beam   elements = 0
     number of failed shell  elements = 0
     number of failed tshell elements = 0
 f a i l e d   e l e m e n t   r e p o r t  time=  5.3237E-05
     number of failed solid  elements = 0
     number of failed beam   elements = 0
     number of failed shell  elements = 0
     number of failed tshell elements = 0
 f a i l e d   e l e m e n t   r e p o r t  time=  5.3692E-05
     number of failed solid  elements = 0
     number of failed beam   elements = 0
     number of failed shell  elements = 0
     number of failed tshell elements = 0
 f a i l e d   e l e m e n t   r e p o r t  time=  5.6581E-05
     number of failed solid  elements = 0
     number of failed beam   elements = 0
     number of failed shell  elements = 0
     number of failed tshell elements = 0
 f a i l e d   e l e m e n t   r e p o r t  time=  5.7211E-05
     number of failed solid  elements = 0
     number of failed beam   elements = 0
     number of failed shell  elements = 0
     number of failed tshell elements = 0
 f a i l e d   e l e m e n t   r e p o r t  time=  5.8472E-05
     number of failed solid  elements = 0
     number of failed beam   elements = 0
     number of failed shell  elements = 0
     number of failed tshell elements = 0
 f a i l e d   e l e m e n t   r e p o r t  time=  5.8590E-05
     number of failed solid  elements = 0
     number of failed beam   elements = 0
     number of failed shell  elements = 0
     number of failed tshell elements = 0

 S t o r a g e   a l l o c a t i o n   

 Memory required to complete solution   :     275K
 Additional dynamically allocated memory:      30M
                                   Total:      30M


 P r o c e s s o r   #         3

 T i m i n g   i n f o r m a t i o n
                        CPU(seconds)   %CPU  Clock(seconds) %Clock
  ----------------------------------------------------------------
  Keyword Processing ... 4.5402E-01    0.17     4.6024E-01    0.17
  MPP Decomposition .... 7.2692E-01    0.27     8.0739E-01    0.29
    Init Proc .......... 5.9174E-01    0.22     5.9398E-01    0.22
    Decomposition ...... 4.2608E-02    0.02     4.5710E-02    0.02
    Translation ........ 9.2544E-02    0.03     1.6767E-01    0.06
  Initialization ....... 1.9949E-01    0.07     3.5004E-01    0.13
    Init Proc Phase 1 .. 1.0079E-01    0.04     1.2443E-01    0.05
    Init Proc Phase 2 .. 1.1823E-02    0.00     4.0059E-02    0.01
  Element processing ... 1.1229E+02   41.19     1.1284E+02   41.15
    Solids ............. 1.0750E+02   39.43     1.0802E+02   39.39
    E Other ............ 5.1894E-02    0.02     5.1886E-02    0.02
  Binary databases ..... 4.3434E-01    0.16     4.4585E-01    0.16
  ASCII database ....... 1.5161E+00    0.56     1.5262E+00    0.56
  Contact algorithm .... 4.7939E+01   17.58     4.8159E+01   17.56
    Interf. ID         3 1.1742E+01    4.31     1.1791E+01    4.30
    Interf. ID         2 2.9844E+01   10.95     2.9982E+01   10.93
  Rigid Bodies ......... 1.1460E-01    0.04     1.1557E-01    0.04
  DEM .................. 1.9430E+01    7.13     1.9515E+01    7.12
    DEM self contact ... 1.8911E+01    6.94     1.8996E+01    6.93
  Time step size ....... 5.4244E+01   19.90     5.4453E+01   19.86
  Group force file ..... 5.1084E-02    0.02     6.5813E-02    0.02
  Others ............... 1.1163E+00    0.41     1.1730E+00    0.43
    Force Sharing ...... 8.5475E-01    0.31     8.5734E-01    0.31
  Misc. 1 .............. 2.0485E+01    7.51     2.0586E+01    7.51
    Scale Masses ....... 1.9032E-02    0.01     1.9330E-02    0.01
    Force Constraints .. 2.5199E-02    0.01     2.5331E-02    0.01
    Force to Accel ..... 1.7665E+00    0.65     1.7694E+00    0.65
    Constraint Sharing . 3.1494E-02    0.01     3.1842E-02    0.01
    Update RB nodes .... 2.4000E-02    0.01     2.5282E-02    0.01
  Misc. 2 .............. 3.6973E+00    1.36     3.7031E+00    1.35
  Misc. 3 .............. 8.7691E+00    3.22     8.8422E+00    3.22
  Misc. 4 .............. 1.1696E+00    0.43     1.1819E+00    0.43
    Timestep Init ...... 9.5001E-01    0.35     9.5066E-01    0.35
    Apply Loads ........ 1.6945E-01    0.06     1.7760E-01    0.06
  ----------------------------------------------------------------
  T o t a l s            2.7264E+02  100.00     2.7423E+02  100.00


 A v e r a g e s

 T i m i n g   i n f o r m a t i o n
                        CPU(seconds)   %CPU  Clock(seconds) %Clock
  ----------------------------------------------------------------
  Keyword Processing ... 3.9323E-01    0.15     4.6024E-01    0.17
    KW Reading ......... 1.8906E-02    0.01     2.7352E-02    0.01
    KW Writing ......... 1.1132E-02    0.00     2.7519E-02    0.01
  MPP Decomposition .... 6.5655E-01    0.24     8.0785E-01    0.29
    Init Proc .......... 5.1980E-01    0.19     5.9430E-01    0.22
    Decomposition ...... 3.5993E-02    0.01     4.5386E-02    0.02
    Translation ........ 1.0070E-01    0.04     1.6811E-01    0.06
  Initialization ....... 1.8088E-01    0.07     3.4730E-01    0.13
    Init Proc Phase 1 .. 9.8978E-02    0.04     1.2465E-01    0.05
    Init Proc Phase 2 .. 1.1672E-02    0.00     4.0048E-02    0.01
  Init solver .......... 1.2627E-03    0.00     3.6668E-03    0.00
  Element processing ... 1.2508E+02   46.21     1.2575E+02   45.86
    Solids ............. 1.2043E+02   44.49     1.2106E+02   44.15
    E Other ............ 7.0130E-02    0.03     7.0453E-02    0.03
  Binary databases ..... 4.3579E-01    0.16     4.4998E-01    0.16
  ASCII database ....... 1.7684E+00    0.65     3.4725E+00    1.27
  Contact algorithm .... 4.8437E+01   17.90     4.8680E+01   17.75
    Interf. ID         3 1.2353E+01    4.56     1.2413E+01    4.53
    Interf. ID         2 3.0587E+01   11.30     3.0738E+01   11.21
  Rigid Bodies ......... 1.1744E-01    0.04     1.1842E-01    0.04
  DEM .................. 1.8612E+01    6.88     1.8698E+01    6.82
    DEM self contact ... 1.8109E+01    6.69     1.8196E+01    6.64
  Time step size ....... 4.1317E+01   15.27     4.1492E+01   15.13
  Group force file ..... 4.2109E-02    0.02     5.3029E-02    0.02
  Others ............... 1.4487E+00    0.54     1.5048E+00    0.55
    Force Sharing ...... 1.1922E+00    0.44     1.1969E+00    0.44
  Misc. 1 .............. 2.0557E+01    7.60     2.0677E+01    7.54
    Scale Masses ....... 1.7210E-02    0.01     1.7380E-02    0.01
    Force Constraints .. 2.2482E-02    0.01     2.2557E-02    0.01
    Force to Accel ..... 1.7787E+00    0.66     1.7830E+00    0.65
    Constraint Sharing . 2.8136E-02    0.01     2.8288E-02    0.01
    Update RB nodes .... 2.7393E-02    0.01     2.8966E-02    0.01
  Misc. 2 .............. 3.9646E+00    1.46     3.9771E+00    1.45
  Misc. 3 .............. 6.4557E+00    2.39     6.5246E+00    2.38
  Misc. 4 .............. 1.1930E+00    0.44     1.2066E+00    0.44
    Timestep Init ...... 9.6249E-01    0.36     9.6129E-01    0.35
    Apply Loads ........ 1.7802E-01    0.07     1.8855E-01    0.07
  ----------------------------------------------------------------
  T o t a l s            2.7066E+02  100.00     2.7423E+02  100.00

 Problem time       =    6.0000E-05
 Problem cycle      =     53892
 Total CPU time     =       271 seconds (   0 hours  4 minutes 31 seconds)
 CPU time per zone cycle  =        431.309 nanoseconds
 Clock time per zone cycle=        436.635 nanoseconds

 Parallel execution with      4 MPP proc
 NLQ used/max                64/    64

  C P U   T i m i n g   i n f o r m a t i o n

  Processor   Hostname                              CPU/Avg_CPU  CPU(seconds)
  ---------------------------------------------------------------------------
  #       0   compute-0-0                               0.97977   2.6524E+02
  #       1   compute-0-0                               1.00647   2.7247E+02
  #       2   compute-0-0                               1.00644   2.7246E+02
  #       3   compute-0-0                               1.00732   2.7270E+02
  ---------------------------------------------------------------------------
  T o t a l s                                                     1.0829E+03


 Start time   04/08/2022 14:23:04  
 End time     04/08/2022 14:27:38  
 Elapsed time     274 seconds for   53892 cycles using     4 MPP procs
             (      0 hour   4 minutes 34 seconds)

 N o r m a l    t e r m i n a t i o n                          04/08/22 14:27:38
