      Date: 04/08/2022      Time: 14:23:04  

     ___________________________________________________
     |                                                 |
     |  Livermore Software Technology, LLC             |
     |                                                 |
     |  7374 Las Positas Road                          |
     |  Livermore, CA 94551                            |
     |  Tel: (925) 449-2500  Fax: (925) 449-2507       |
     |  www.lstc.com                                   |
     |_________________________________________________|
     |                                                 |
     |  LS-DYNA, A Program for Nonlinear Dynamic       |
     |  Analysis of Structures in Three Dimensions     |
     |  Version : mpp d R12.0.0   Date: 06/19/2020     |
     |  Revision: 148931          Time: 17:26:40       |
     |                                                 |
     |  Features enabled in this version:              |
     |    Distributed Memory Parallel                  |
     |    CESE CHEMISTRY EM ICFD STOCHASTIC_PARTICLES  |
     |    FFTW (multi-dimensional FFTW Library)        |
     |    ANSYS License (ANSYS202)                     |
     |    BigID  option                                |
     |                                                 |
     |  Licensed to:                                   |
     |  Issued by  : Pascale.SaneGuttin_02092022       |
     |                                                 |
     |  Platform   : Intel-MPI 2018 Xeon64             |
     |  OS Level   : Linux CentOS 6.5 uom              |
     |  Compiler   : Intel Fortran Compiler 16.0 AVX-2 |
     |  Hostname   : compute-0-0                       |
     |  Precision  : Double precision (I8R8)           |
     |  SVN Version: 148978                            |
     |                                                 |
     |  Unauthorized use infringes LST copyrights      |
     |_________________________________________________|


 Input file: DynaOpt.key                                                                     

 The native file format       : 64-bit small endian

 LS-DYNA will perform a structural only analysis 

 allocating  memory to   100000000 d     1985258 hex ownership chunk
 contracting memory to           7 d     1991056 material sort chunk
 expanding   memory to          12 d     2059945 nodal force sharing lists 1
 expanding   memory to          18 d     2042571 mat scratch
 expanding   memory to          19 d     3117335 tied nodes scratch
 expanding   memory to          22 d     3117335 tied node scratch
 contracting memory to          18 d     3117335 nodal rigid body scratch
 expanding   memory to        1298 d     3117335 DES sld2des scratch
 expanding   memory to       19476 d     3117335 DES sld2des scratch
 contracting memory to        2450 d     3117335 DES sld2des scratch
 contracting memory to          18 d     3117335 spring/damper scratch
 contracting memory to           1 d     2107504 Performing Decomposition -- Phase 3
 LS-DYNA keyword deck by LS-PrePost                                      
                         ls-dyna mpp.148931 d           date 06/19/2020
 expanding   memory to        4305 d     2107504 material, node and element data
 expanding   memory to        4399 d     2107523 mat add general damage 0
 expanding   memory to        4459 d     2107523 material added airbag porosity leakage 
 expanding   memory to        4477 d     2107523 material properties
 expanding   memory to        4495 d     2147969 element data for composite material
 expanding   memory to        4510 d     2502564 gradient of damage data
 expanding   memory to       18598 d     2546058 user control for contact interfaces
 contracting memory to       18584 d     2546058 thermal expansion 0
 expanding   memory to       18590 d     2546058 state of charge expansion 0
 expanding   memory to       18592 d     2546058 cross-sectional force definitions 0
 expanding   memory to       29001 d     2546094 temp index array for node sorting
 contracting memory to       18592 d     2546094 just because?
 expanding   memory to       21491 d     2566930 arbitrary element numbering input
 contracting memory to       18612 d    27236251 spc cards
 contracting memory to       18599 d    27236251 d3thdt storage
 expanding   memory to       18600 d    27325627 process element material data
 expanding   memory to       20601 d    27325621 load curve data
 contracting memory to       18607 d    27325621 user_define_loading_set
 expanding   memory to       18807 d    27325621 regularize time history data
 contracting memory to       18611 d    27325621 *DEFINE_ELEMENT_DEATH
 expanding   memory to       18866 d    27304915 contact interfaces
 expanding   memory to       40684 d    27304915 implicit contact 1
 expanding   memory to       63860 d    27304915 implicit contact 2
 contracting memory to       19866 d    27576548 contact segment data 1
 expanding   memory to       74285 d    27840233 contact segment data 3
 expanding   memory to      166965 d    27713172 read contacts, eroding check
 expanding   memory to      256929 d    27713172 eroding neighbors 2
 expanding   memory to      277223 d    27713172 eroding neighbors
 contracting memory to      114873 d    28181569 contact definition
 expanding   memory to      114879 d    28337764 contact history
 expanding   memory to      114933 d    28422740 rigid body
 expanding   memory to      114951 d    28423354 rbe2 scratch
 contracting memory to      114937 d    28486268 contact friction
 expanding   memory to      115027 d    28486274 joints
 expanding   memory to      117087 d    28486274 de sld2des
 expanding   memory to      117127 d    28494971 discrete elements regions
 expanding   memory to      117227 d    28710599 rigid bodies for disp. termination
 
 *** Warning 40859 (SOL+859)
     Cannot find elements of slave segment of interface 2
 deleted segment ID          n1          n2          n3          n4
       1 310646 310646 310646 310646
       2 310649 310649 310649 310649
       3 310650 310650 310650 310650
       4 310651 310651 310651 310651
       5 310654 310654 310654 310654
       6 310655 310655 310655 310655
       7 310657 310657 310657 310657
       8 310663 310663 310663 310663
       9 310665 310665 310665 310665
       10 310669 310669 310669 310669
       11 310670 310670 310670 310670
       12 310671 310671 310671 310671
       13 310673 310673 310673 310673
       14 310679 310679 310679 310679
       15 310682 310682 310682 310682
       16 310690 310690 310690 310690
       17 310693 310693 310693 310693
       18 310694 310694 310694 310694
       19 310695 310695 310695 310695
       20 310698 310698 310698 310698
       21 310699 310699 310699 310699
       22 310701 310701 310701 310701
       23 310707 310707 310707 310707
       24 310709 310709 310709 310709
       25 310713 310713 310713 310713
       26 310714 310714 310714 310714
       27 310715 310715 310715 310715
       28 310717 310717 310717 310717
       29 310722 310722 310722 310722
       30 310727 310727 310727 310727
       31 310730 310730 310730 310730
       32 310731 310731 310731 310731
       33 310732 310732 310732 310732
       34 310735 310735 310735 310735
       35 310736 310736 310736 310736
       36 310738 310738 310738 310738
       37 310744 310744 310744 310744
       38 310746 310746 310746 310746
       39 310749 310749 310749 310749
       40 310750 310750 310750 310750
       41 310751 310751 310751 310751
       42 310753 310753 310753 310753
       43 310762 310762 310762 310762
       44 310763 310763 310763 310763
       45 310766 310766 310766 310766
       46 310767 310767 310767 310767
       47 310768 310768 310768 310768
       48 310771 310771 310771 310771
       49 310772 310772 310772 310772
       50 310774 310774 310774 310774
       51 310780 310780 310780 310780
       52 310782 310782 310782 310782
       53 310786 310786 310786 310786
       54 310787 310787 310787 310787
       55 310789 310789 310789 310789
       56 310794 310794 310794 310794
       57 310796 310796 310796 310796
       58 310802 310802 310802 310802
       59 310803 310803 310803 310803
       60 310806 310806 310806 310806
       61 310807 310807 310807 310807
       62 310808 310808 310808 310808
       63 310809 310809 310809 310809
       64 310812 310812 310812 310812
       65 310814 310814 310814 310814
       66 310820 310820 310820 310820
       67 310822 310822 310822 310822
       68 310827 310827 310827 310827
       69 310828 310828 310828 310828
       70 310830 310830 310830 310830
       71 310834 310834 310834 310834
       72 310836 310836 310836 310836
       73 310837 310837 310837 310837
       74 310841 310841 310841 310841
       75 310842 310842 310842 310842
       76 310845 310845 310845 310845
       77 310846 310846 310846 310846
       78 310847 310847 310847 310847
       79 310850 310850 310850 310850
       80 310851 310851 310851 310851
       81 310853 310853 310853 310853
       82 310859 310859 310859 310859
       83 310861 310861 310861 310861
       84 310866 310866 310866 310866
       85 310867 310867 310867 310867
       86 310869 310869 310869 310869
       87 310874 310874 310874 310874
       88 310879 310879 310879 310879
       89 310880 310880 310880 310880
       90 310883 310883 310883 310883
       91 310884 310884 310884 310884
       92 310885 310885 310885 310885
       93 310888 310888 310888 310888
       94 310889 310889 310889 310889
       95 310891 310891 310891 310891
       96 310897 310897 310897 310897
       97 310899 310899 310899 310899
       98 310904 310904 310904 310904
       99 310905 310905 310905 310905
       100 310907 310907 310907 310907
       101 310916 310916 310916 310916
       102 310917 310917 310917 310917
       103 310920 310920 310920 310920
       104 310921 310921 310921 310921
       105 310922 310922 310922 310922
       106 310925 310925 310925 310925
       107 310926 310926 310926 310926
       108 310928 310928 310928 310928
       109 310934 310934 310934 310934
       110 310936 310936 310936 310936
       111 310941 310941 310941 310941
       112 310942 310942 310942 310942
       113 310944 310944 310944 310944
       114 310949 310949 310949 310949
       115 310953 310953 310953 310953
       116 310954 310954 310954 310954
       117 310957 310957 310957 310957
       118 310958 310958 310958 310958
       119 310959 310959 310959 310959
       120 310962 310962 310962 310962
       121 310963 310963 310963 310963
       122 310965 310965 310965 310965
       123 310971 310971 310971 310971
       124 310973 310973 310973 310973
       125 310978 310978 310978 310978
       126 310979 310979 310979 310979
       127 310981 310981 310981 310981
       128 310987 310987 310987 310987
       129 310988 310988 310988 310988
       130 310992 310992 310992 310992
       131 310993 310993 310993 310993
       132 310996 310996 310996 310996
       133 310997 310997 310997 310997
       134 311000 311000 311000 311000
       135 311001 311001 311001 311001
       136 311003 311003 311003 311003
       137 311009 311009 311009 311009
       138 311011 311011 311011 311011
       139 311016 311016 311016 311016
       140 311017 311017 311017 311017
       141 311019 311019 311019 311019
       142 311024 311024 311024 311024
       143 311028 311028 311028 311028
       144 311029 311029 311029 311029
       145 311031 311031 311031 311031
       146 311032 311032 311032 311032
       147 311033 311033 311033 311033
       148 311034 311034 311034 311034
       149 311038 311038 311038 311038
       150 311040 311040 311040 311040
       151 311046 311046 311046 311046
       152 311048 311048 311048 311048
       153 311053 311053 311053 311053
       154 311054 311054 311054 311054
       155 311056 311056 311056 311056
       156 311066 311066 311066 311066
       157 311067 311067 311067 311067
       158 311070 311070 311070 311070
       159 311071 311071 311071 311071
       160 311072 311072 311072 311072
       161 311075 311075 311075 311075
       162 311076 311076 311076 311076
       163 311078 311078 311078 311078
       164 311084 311084 311084 311084
       165 311086 311086 311086 311086
       166 311091 311091 311091 311091
       167 311092 311092 311092 311092
       168 311094 311094 311094 311094
       169 311098 311098 311098 311098
       170 311102 311102 311102 311102
       171 311103 311103 311103 311103
       172 311106 311106 311106 311106
       173 311107 311107 311107 311107
       174 311108 311108 311108 311108
       175 311111 311111 311111 311111
       176 311112 311112 311112 311112
       177 311120 311120 311120 311120
       178 311122 311122 311122 311122
       179 311127 311127 311127 311127
       180 311128 311128 311128 311128
       181 311130 311130 311130 311130
       182 311134 311134 311134 311134
       183 311139 311139 311139 311139
       184 311140 311140 311140 311140
       185 311143 311143 311143 311143
       186 311144 311144 311144 311144
       187 311145 311145 311145 311145
       188 311148 311148 311148 311148
       189 311149 311149 311149 311149
       190 311151 311151 311151 311151
       191 311157 311157 311157 311157
       192 311159 311159 311159 311159
       193 311164 311164 311164 311164
       194 311165 311165 311165 311165
       195 311167 311167 311167 311167
       196 311175 311175 311175 311175
       197 311177 311177 311177 311177
       198 311181 311181 311181 311181
       199 311183 311183 311183 311183
       200 311184 311184 311184 311184
       201 311185 311185 311185 311185
       202 311188 311188 311188 311188
       203 311189 311189 311189 311189
       204 311191 311191 311191 311191
       205 311197 311197 311197 311197
       206 311199 311199 311199 311199
       207 311204 311204 311204 311204
       208 311205 311205 311205 311205
       209 311207 311207 311207 311207
       210 311219 311219 311219 311219
       211 311222 311222 311222 311222
       212 311223 311223 311223 311223
       213 311224 311224 311224 311224
       214 311227 311227 311227 311227
       215 311228 311228 311228 311228
       216 311230 311230 311230 311230
       217 311236 311236 311236 311236
       218 311238 311238 311238 311238
       219 311243 311243 311243 311243
       220 311244 311244 311244 311244
       221 311246 311246 311246 311246
       222 311250 311250 311250 311250
       223 311259 311259 311259 311259
       224 311263 311263 311263 311263
       225 311264 311264 311264 311264
       226 311265 311265 311265 311265
       227 311268 311268 311268 311268
       228 311269 311269 311269 311269
       229 311271 311271 311271 311271
       230 311277 311277 311277 311277
       231 311279 311279 311279 311279
       232 311284 311284 311284 311284
       233 311285 311285 311285 311285
       234 311287 311287 311287 311287
       235 311292 311292 311292 311292
       236 311296 311296 311296 311296
       237 311302 311302 311302 311302
       238 311305 311305 311305 311305
       239 311306 311306 311306 311306
       240 311307 311307 311307 311307
       241 311310 311310 311310 311310
       242 311311 311311 311311 311311
       243 311313 311313 311313 311313
       244 311318 311318 311318 311318
       245 311320 311320 311320 311320
       246 311325 311325 311325 311325
       247 311326 311326 311326 311326
       248 311328 311328 311328 311328
       249 311340 311340 311340 311340
       250 311343 311343 311343 311343
       251 311344 311344 311344 311344
       252 311345 311345 311345 311345
       253 311346 311346 311346 311346
       254 311350 311350 311350 311350
       255 311352 311352 311352 311352
       256 311357 311357 311357 311357
       257 311358 311358 311358 311358
       258 311363 311363 311363 311363
       259 311364 311364 311364 311364
       260 311366 311366 311366 311366
       261 311371 311371 311371 311371
       262 311376 311376 311376 311376
       263 311380 311380 311380 311380
       264 311381 311381 311381 311381
       265 311382 311382 311382 311382
       266 311385 311385 311385 311385
       267 311388 311388 311388 311388
       268 311392 311392 311392 311392
       269 311394 311394 311394 311394
       270 311399 311399 311399 311399
       271 311400 311400 311400 311400
       272 311402 311402 311402 311402
       273 311406 311406 311406 311406
       274 311407 311407 311407 311407
       275 311409 311409 311409 311409
       276 311414 311414 311414 311414
       277 311418 311418 311418 311418
       278 311419 311419 311419 311419
       279 311420 311420 311420 311420
       280 311422 311422 311422 311422
       281 311426 311426 311426 311426
       282 311431 311431 311431 311431
       283 311433 311433 311433 311433
       284 311438 311438 311438 311438
       285 311439 311439 311439 311439
       286 311441 311441 311441 311441
       287 311451 311451 311451 311451
       288 311455 311455 311455 311455
       289 311456 311456 311456 311456
       290 311457 311457 311457 311457
       291 311460 311460 311460 311460
       292 311464 311464 311464 311464
       293 311469 311469 311469 311469
       294 311471 311471 311471 311471
       295 311476 311476 311476 311476
       296 311477 311477 311477 311477
       297 311479 311479 311479 311479
       298 311486 311486 311486 311486
       299 311490 311490 311490 311490
       300 311493 311493 311493 311493
       301 311494 311494 311494 311494
       302 311495 311495 311495 311495
       303 311498 311498 311498 311498
       304 311501 311501 311501 311501
       305 311502 311502 311502 311502
       306 311507 311507 311507 311507
       307 311509 311509 311509 311509
       308 311514 311514 311514 311514
       309 311515 311515 311515 311515
       310 311517 311517 311517 311517
       311 311526 311526 311526 311526
       312 311531 311531 311531 311531
       313 311532 311532 311532 311532
       314 311533 311533 311533 311533
       315 311534 311534 311534 311534
       316 311537 311537 311537 311537
       317 311540 311540 311540 311540
       318 311541 311541 311541 311541
       319 311546 311546 311546 311546
       320 311548 311548 311548 311548
       321 311549 311549 311549 311549
       322 311553 311553 311553 311553
       323 311554 311554 311554 311554
       324 311556 311556 311556 311556
       325 311560 311560 311560 311560
       326 311567 311567 311567 311567
       327 311569 311569 311569 311569
       328 311570 311570 311570 311570
       329 311572 311572 311572 311572
       330 311573 311573 311573 311573
       331 311575 311575 311575 311575
       332 311579 311579 311579 311579
       333 311585 311585 311585 311585
       334 311587 311587 311587 311587
       335 311588 311588 311588 311588
       336 311592 311592 311592 311592
       337 311595 311595 311595 311595
       338 311602 311602 311602 311602
       339 311607 311607 311607 311607
       340 311609 311609 311609 311609
       341 311610 311610 311610 311610
       342 311612 311612 311612 311612
       343 311613 311613 311613 311613
       344 311616 311616 311616 311616
       345 311619 311619 311619 311619
       346 311620 311620 311620 311620
       347 311625 311625 311625 311625
       348 311626 311626 311626 311626
       349 311627 311627 311627 311627
       350 311628 311628 311628 311628
       351 311632 311632 311632 311632
       352 311635 311635 311635 311635
       353 311639 311639 311639 311639
       354 311641 311641 311641 311641
       355 311646 311646 311646 311646
       356 311648 311648 311648 311648
       357 311649 311649 311649 311649
       358 311651 311651 311651 311651
       359 311652 311652 311652 311652
       360 311655 311655 311655 311655
       361 311658 311658 311658 311658
       362 311659 311659 311659 311659
       363 311664 311664 311664 311664
       364 311665 311665 311665 311665
       365 311666 311666 311666 311666
       366 311667 311667 311667 311667
       367 311671 311671 311671 311671
       368 311674 311674 311674 311674
       369 311678 311678 311678 311678
       370 311679 311679 311679 311679
       371 311683 311683 311683 311683
       372 311685 311685 311685 311685
       373 311686 311686 311686 311686
       374 311688 311688 311688 311688
       375 311689 311689 311689 311689
       376 311691 311691 311691 311691
       377 311693 311693 311693 311693
       378 311695 311695 311695 311695
       379 311701 311701 311701 311701
       380 311702 311702 311702 311702
       381 311703 311703 311703 311703
       382 311704 311704 311704 311704
       383 311708 311708 311708 311708
       384 311711 311711 311711 311711
       385 311715 311715 311715 311715
       386 311717 311717 311717 311717
       387 311719 311719 311719 311719
       388 311720 311720 311720 311720
       389 311724 311724 311724 311724
       390 311726 311726 311726 311726
       391 311727 311727 311727 311727
       392 311729 311729 311729 311729
       393 311730 311730 311730 311730
       394 311733 311733 311733 311733
       395 311736 311736 311736 311736
       396 311737 311737 311737 311737
       397 311742 311742 311742 311742
       398 311743 311743 311743 311743
       399 311744 311744 311744 311744
       400 311745 311745 311745 311745
       401 311749 311749 311749 311749
       402 311752 311752 311752 311752
       403 311757 311757 311757 311757
       404 311761 311761 311761 311761
       405 311763 311763 311763 311763
       406 311764 311764 311764 311764
       407 311766 311766 311766 311766
       408 311767 311767 311767 311767
       409 311770 311770 311770 311770
       410 311773 311773 311773 311773
       411 311774 311774 311774 311774
       412 311779 311779 311779 311779
       413 311780 311780 311780 311780
       414 311781 311781 311781 311781
       415 311782 311782 311782 311782
       416 311786 311786 311786 311786
       417 311789 311789 311789 311789
       418 311793 311793 311793 311793
       419 311797 311797 311797 311797
       420 311799 311799 311799 311799
       421 311800 311800 311800 311800
       422 311802 311802 311802 311802
       423 311803 311803 311803 311803
       424 311806 311806 311806 311806
       425 311809 311809 311809 311809
       426 311810 311810 311810 311810
       427 311815 311815 311815 311815
       428 311816 311816 311816 311816
       429 311817 311817 311817 311817
       430 311818 311818 311818 311818
       431 311822 311822 311822 311822
       432 311825 311825 311825 311825
       433 311831 311831 311831 311831
       434 311836 311836 311836 311836
       435 311839 311839 311839 311839
       436 311841 311841 311841 311841
       437 311842 311842 311842 311842
       438 311848 311848 311848 311848
       439 311849 311849 311849 311849
       440 311854 311854 311854 311854
       441 311855 311855 311855 311855
       442 311856 311856 311856 311856
       443 311857 311857 311857 311857
       444 311861 311861 311861 311861
       445 311864 311864 311864 311864
       446 311868 311868 311868 311868
       447 311872 311872 311872 311872
       448 311876 311876 311876 311876
       449 311878 311878 311878 311878
       450 311879 311879 311879 311879
       451 311880 311880 311880 311880
       452 311881 311881 311881 311881
       453 311882 311882 311882 311882
       454 311888 311888 311888 311888
       455 311889 311889 311889 311889
       456 311894 311894 311894 311894
       457 311895 311895 311895 311895
       458 311896 311896 311896 311896
       459 311897 311897 311897 311897
       460 311901 311901 311901 311901
       461 311904 311904 311904 311904
       462 311913 311913 311913 311913
       463 311915 311915 311915 311915
       464 311916 311916 311916 311916
       465 311918 311918 311918 311918
       466 311919 311919 311919 311919
       467 311922 311922 311922 311922
       468 311925 311925 311925 311925
       469 311926 311926 311926 311926
       470 311931 311931 311931 311931
       471 311932 311932 311932 311932
       472 311933 311933 311933 311933
       473 311934 311934 311934 311934
       474 311938 311938 311938 311938
       475 311946 311946 311946 311946
       476 311947 311947 311947 311947
       477 311952 311952 311952 311952
       478 311954 311954 311954 311954
       479 311955 311955 311955 311955
       480 311957 311957 311957 311957
       481 311958 311958 311958 311958
       482 311960 311960 311960 311960
       483 311963 311963 311963 311963
       484 311964 311964 311964 311964
       485 311969 311969 311969 311969
       486 311970 311970 311970 311970
       487 311971 311971 311971 311971
       488 311972 311972 311972 311972
       489 311976 311976 311976 311976
       490 311983 311983 311983 311983
       491 311985 311985 311985 311985
       492 311990 311990 311990 311990
       493 311992 311992 311992 311992
       494 311993 311993 311993 311993
       495 311995 311995 311995 311995
       496 311996 311996 311996 311996
       497 311999 311999 311999 311999
       498 312002 312002 312002 312002
       499 312003 312003 312003 312003
       500 312008 312008 312008 312008
       501 312009 312009 312009 312009
       502 312010 312010 312010 312010
       503 312011 312011 312011 312011
       504 312015 312015 312015 312015
       505 312023 312023 312023 312023
       506 312024 312024 312024 312024
       507 312028 312028 312028 312028
       508 312030 312030 312030 312030
       509 312031 312031 312031 312031
       510 312032 312032 312032 312032
       511 312034 312034 312034 312034
       512 312036 312036 312036 312036
       513 312039 312039 312039 312039
       514 312040 312040 312040 312040
       515 312045 312045 312045 312045
       516 312046 312046 312046 312046
       517 312047 312047 312047 312047
       518 312048 312048 312048 312048
       519 312052 312052 312052 312052
       520 312064 312064 312064 312064
       521 312066 312066 312066 312066
       522 312067 312067 312067 312067
       523 312069 312069 312069 312069
       524 312071 312071 312071 312071
       525 312073 312073 312073 312073
       526 312076 312076 312076 312076
       527 312077 312077 312077 312077
       528 312082 312082 312082 312082
       529 312083 312083 312083 312083
       530 312084 312084 312084 312084
       531 312085 312085 312085 312085
       532 312089 312089 312089 312089
       533 312097 312097 312097 312097
       534 312105 312105 312105 312105
       535 312106 312106 312106 312106
       536 312108 312108 312108 312108
       537 312109 312109 312109 312109
       538 312110 312110 312110 312110
       539 312113 312113 312113 312113
       540 312116 312116 312116 312116
       541 312117 312117 312117 312117
       542 312122 312122 312122 312122
       543 312123 312123 312123 312123
       544 312124 312124 312124 312124
       545 312125 312125 312125 312125
       546 312129 312129 312129 312129
       547 312140 312140 312140 312140
       548 312142 312142 312142 312142
       549 312144 312144 312144 312144
       550 312145 312145 312145 312145
       551 312146 312146 312146 312146
       552 312149 312149 312149 312149
       553 312152 312152 312152 312152
       554 312154 312154 312154 312154
       555 312158 312158 312158 312158
       556 312159 312159 312159 312159
       557 312160 312160 312160 312160
       558 312161 312161 312161 312161
       559 312165 312165 312165 312165
       560 312178 312178 312178 312178
       561 312180 312180 312180 312180
       562 312182 312182 312182 312182
       563 312183 312183 312183 312183
       564 312184 312184 312184 312184
       565 312186 312186 312186 312186
       566 312189 312189 312189 312189
       567 312190 312190 312190 312190
       568 312195 312195 312195 312195
       569 312196 312196 312196 312196
       570 312197 312197 312197 312197
       571 312198 312198 312198 312198
       572 312202 312202 312202 312202
       573 312214 312214 312214 312214
       574 312216 312216 312216 312216
       575 312217 312217 312217 312217
       576 312219 312219 312219 312219
       577 312220 312220 312220 312220
       578 312223 312223 312223 312223
       579 312226 312226 312226 312226
       580 312227 312227 312227 312227
       581 312232 312232 312232 312232
       582 312233 312233 312233 312233
       583 312234 312234 312234 312234
       584 312235 312235 312235 312235
       585 312239 312239 312239 312239
       586 312251 312251 312251 312251
       587 312253 312253 312253 312253
       588 312254 312254 312254 312254
       589 312256 312256 312256 312256
       590 312257 312257 312257 312257
       591 312262 312262 312262 312262
       592 312263 312263 312263 312263
       593 312268 312268 312268 312268
       594 312269 312269 312269 312269
       595 312270 312270 312270 312270
       596 312271 312271 312271 312271
       597 312275 312275 312275 312275
       598 312287 312287 312287 312287
       599 312289 312289 312289 312289
       600 312291 312291 312291 312291
       601 312292 312292 312292 312292
       602 312293 312293 312293 312293
       603 312295 312295 312295 312295
       604 312298 312298 312298 312298
       605 312299 312299 312299 312299
       606 312304 312304 312304 312304
       607 312305 312305 312305 312305
       608 312306 312306 312306 312306
       609 312307 312307 312307 312307
       610 312311 312311 312311 312311
       611 312324 312324 312324 312324
       612 312326 312326 312326 312326
       613 312328 312328 312328 312328
       614 312329 312329 312329 312329
       615 312331 312331 312331 312331
       616 312335 312335 312335 312335
       617 312336 312336 312336 312336
       618 312341 312341 312341 312341
       619 312342 312342 312342 312342
       620 312343 312343 312343 312343
       621 312344 312344 312344 312344
       622 312348 312348 312348 312348
       623 312358 312358 312358 312358
       624 312360 312360 312360 312360
       625 312363 312363 312363 312363
       626 312364 312364 312364 312364
       627 312366 312366 312366 312366
       628 312370 312370 312370 312370
       629 312371 312371 312371 312371
       630 312376 312376 312376 312376
       631 312377 312377 312377 312377
       632 312378 312378 312378 312378
       633 312379 312379 312379 312379
       634 312383 312383 312383 312383
       635 312397 312397 312397 312397
       636 312399 312399 312399 312399
       637 312402 312402 312402 312402
       638 312403 312403 312403 312403
       639 312405 312405 312405 312405
       640 312409 312409 312409 312409
       641 312410 312410 312410 312410
       642 312415 312415 312415 312415
       643 312416 312416 312416 312416
       644 312417 312417 312417 312417
       645 312418 312418 312418 312418
       646 312422 312422 312422 312422
       647 312432 312432 312432 312432
       648 312436 312436 312436 312436
       649 312438 312438 312438 312438
       650 312441 312441 312441 312441
       651 312445 312445 312445 312445
       652 312448 312448 312448 312448
       653 312453 312453 312453 312453
       654 312454 312454 312454 312454
       655 312455 312455 312455 312455
       656 312456 312456 312456 312456
       657 312460 312460 312460 312460
       658 312474 312474 312474 312474
       659 312476 312476 312476 312476
       660 312479 312479 312479 312479
       661 312480 312480 312480 312480
       662 312482 312482 312482 312482
       663 312483 312483 312483 312483
       664 312486 312486 312486 312486
       665 312487 312487 312487 312487
       666 312492 312492 312492 312492
       667 312493 312493 312493 312493
       668 312494 312494 312494 312494
       669 312495 312495 312495 312495
       670 312499 312499 312499 312499
       671 312511 312511 312511 312511
       672 312513 312513 312513 312513
       673 312516 312516 312516 312516
       674 312517 312517 312517 312517
       675 312519 312519 312519 312519
       676 312520 312520 312520 312520
       677 312523 312523 312523 312523
       678 312524 312524 312524 312524
       679 312529 312529 312529 312529
       680 312530 312530 312530 312530
       681 312531 312531 312531 312531
       682 312532 312532 312532 312532
       683 312536 312536 312536 312536
       684 312543 312543 312543 312543
       685 312550 312550 312550 312550
       686 312552 312552 312552 312552
       687 312555 312555 312555 312555
       688 312556 312556 312556 312556
       689 312558 312558 312558 312558
       690 312562 312562 312562 312562
       691 312563 312563 312563 312563
       692 312568 312568 312568 312568
       693 312569 312569 312569 312569
       694 312570 312570 312570 312570
       695 312571 312571 312571 312571
       696 312575 312575 312575 312575
       697 312586 312586 312586 312586
       698 312588 312588 312588 312588
       699 312590 312590 312590 312590
       700 312591 312591 312591 312591
       701 312592 312592 312592 312592
       702 312595 312595 312595 312595
       703 312598 312598 312598 312598
       704 312599 312599 312599 312599
       705 312604 312604 312604 312604
       706 312605 312605 312605 312605
       707 312606 312606 312606 312606
       708 312607 312607 312607 312607
       709 312611 312611 312611 312611
       710 312619 312619 312619 312619
       711 312625 312625 312625 312625
       712 312627 312627 312627 312627
       713 312630 312630 312630 312630
       714 312631 312631 312631 312631
       715 312633 312633 312633 312633
       716 312634 312634 312634 312634
       717 312637 312637 312637 312637
       718 312638 312638 312638 312638
       719 312643 312643 312643 312643
       720 312644 312644 312644 312644
       721 312645 312645 312645 312645
       722 312646 312646 312646 312646
       723 312650 312650 312650 312650
       724 312660 312660 312660 312660
       725 312662 312662 312662 312662
       726 312665 312665 312665 312665
       727 312666 312666 312666 312666
       728 312668 312668 312668 312668
       729 312669 312669 312669 312669
       730 312672 312672 312672 312672
       731 312673 312673 312673 312673
       732 312678 312678 312678 312678
       733 312679 312679 312679 312679
       734 312680 312680 312680 312680
       735 312681 312681 312681 312681
       736 312685 312685 312685 312685
       737 312695 312695 312695 312695
       738 312697 312697 312697 312697
       739 312700 312700 312700 312700
       740 312701 312701 312701 312701
       741 312703 312703 312703 312703
       742 312704 312704 312704 312704
       743 312707 312707 312707 312707
       744 312708 312708 312708 312708
       745 312713 312713 312713 312713
       746 312714 312714 312714 312714
       747 312715 312715 312715 312715
       748 312716 312716 312716 312716
       749 312720 312720 312720 312720
       750 312734 312734 312734 312734
       751 312737 312737 312737 312737
       752 312738 312738 312738 312738
       753 312740 312740 312740 312740
       754 312741 312741 312741 312741
       755 312744 312744 312744 312744
       756 312745 312745 312745 312745
       757 312750 312750 312750 312750
       758 312751 312751 312751 312751
       759 312752 312752 312752 312752
       760 312753 312753 312753 312753
       761 312757 312757 312757 312757
       762 312766 312766 312766 312766
       763 312769 312769 312769 312769
       764 312771 312771 312771 312771
       765 312774 312774 312774 312774
       766 312776 312776 312776 312776
       767 312777 312777 312777 312777
       768 312780 312780 312780 312780
       769 312781 312781 312781 312781
       770 312786 312786 312786 312786
       771 312787 312787 312787 312787
       772 312788 312788 312788 312788
       773 312789 312789 312789 312789
       774 312793 312793 312793 312793
       775 312800 312800 312800 312800
       776 312805 312805 312805 312805
       777 312807 312807 312807 312807
       778 312810 312810 312810 312810
       779 312811 312811 312811 312811
       780 312813 312813 312813 312813
       781 312814 312814 312814 312814
       782 312817 312817 312817 312817
       783 312818 312818 312818 312818
       784 312823 312823 312823 312823
       785 312824 312824 312824 312824
       786 312825 312825 312825 312825
       787 312826 312826 312826 312826
       788 312830 312830 312830 312830
       789 312837 312837 312837 312837
       790 312838 312838 312838 312838
       791 312844 312844 312844 312844
       792 312846 312846 312846 312846
       793 312848 312848 312848 312848
       794 312849 312849 312849 312849
       795 312851 312851 312851 312851
       796 312852 312852 312852 312852
       797 312855 312855 312855 312855
       798 312856 312856 312856 312856
       799 312861 312861 312861 312861
       800 312862 312862 312862 312862
       801 312863 312863 312863 312863
       802 312864 312864 312864 312864
       803 312868 312868 312868 312868
       804 312879 312879 312879 312879
       805 312881 312881 312881 312881
       806 312884 312884 312884 312884
       807 312885 312885 312885 312885
       808 312887 312887 312887 312887
       809 312888 312888 312888 312888
       810 312891 312891 312891 312891
       811 312892 312892 312892 312892
       812 312897 312897 312897 312897
       813 312898 312898 312898 312898
       814 312899 312899 312899 312899
       815 312900 312900 312900 312900
       816 312904 312904 312904 312904
       817 312918 312918 312918 312918
       818 312920 312920 312920 312920
       819 312923 312923 312923 312923
       820 312924 312924 312924 312924
       821 312926 312926 312926 312926
       822 312927 312927 312927 312927
       823 312930 312930 312930 312930
       824 312931 312931 312931 312931
       825 312936 312936 312936 312936
       826 312937 312937 312937 312937
       827 312938 312938 312938 312938
       828 312939 312939 312939 312939
       829 312943 312943 312943 312943
       830 312952 312952 312952 312952
       831 312958 312958 312958 312958
       832 312960 312960 312960 312960
       833 312963 312963 312963 312963
       834 312964 312964 312964 312964
       835 312966 312966 312966 312966
       836 312967 312967 312967 312967
       837 312970 312970 312970 312970
       838 312971 312971 312971 312971
       839 312976 312976 312976 312976
       840 312977 312977 312977 312977
       841 312978 312978 312978 312978
       842 312979 312979 312979 312979
       843 312983 312983 312983 312983
       844 312996 312996 312996 312996
       845 312997 312997 312997 312997
       846 313000 313000 313000 313000
       847 313001 313001 313001 313001
       848 313003 313003 313003 313003
       849 313004 313004 313004 313004
       850 313007 313007 313007 313007
       851 313008 313008 313008 313008
       852 313013 313013 313013 313013
       853 313014 313014 313014 313014
       854 313015 313015 313015 313015
       855 313016 313016 313016 313016
       856 313020 313020 313020 313020
       857 313027 313027 313027 313027
       858 313028 313028 313028 313028
       859 313035 313035 313035 313035
       860 313037 313037 313037 313037
       861 313040 313040 313040 313040
       862 313041 313041 313041 313041
       863 313043 313043 313043 313043
       864 313044 313044 313044 313044
       865 313047 313047 313047 313047
       866 313048 313048 313048 313048
       867 313053 313053 313053 313053
       868 313054 313054 313054 313054
       869 313055 313055 313055 313055
       870 313056 313056 313056 313056
       871 313060 313060 313060 313060
       872 313068 313068 313068 313068
       873 313076 313076 313076 313076
       874 313077 313077 313077 313077
       875 313080 313080 313080 313080
       876 313081 313081 313081 313081
       877 313083 313083 313083 313083
       878 313084 313084 313084 313084
       879 313087 313087 313087 313087
       880 313088 313088 313088 313088
       881 313094 313094 313094 313094
       882 313095 313095 313095 313095
       883 313096 313096 313096 313096
       884 313097 313097 313097 313097
       885 313100 313100 313100 313100
       886 313112 313112 313112 313112
       887 313113 313113 313113 313113
       888 313115 313115 313115 313115
       889 313118 313118 313118 313118
       890 313120 313120 313120 313120
       891 313121 313121 313121 313121
       892 313122 313122 313122 313122
       893 313125 313125 313125 313125
       894 313130 313130 313130 313130
       895 313131 313131 313131 313131
       896 313132 313132 313132 313132
       897 313133 313133 313133 313133
       898 313137 313137 313137 313137
       899 313151 313151 313151 313151
       900 313153 313153 313153 313153
       901 313156 313156 313156 313156
       902 313157 313157 313157 313157
       903 313159 313159 313159 313159
       904 313160 313160 313160 313160
       905 313163 313163 313163 313163
       906 313164 313164 313164 313164
       907 313169 313169 313169 313169
       908 313170 313170 313170 313170
       909 313171 313171 313171 313171
       910 313172 313172 313172 313172
       911 313176 313176 313176 313176
       912 313184 313184 313184 313184
       913 313189 313189 313189 313189
       914 313191 313191 313191 313191
       915 313194 313194 313194 313194
       916 313195 313195 313195 313195
       917 313197 313197 313197 313197
       918 313198 313198 313198 313198
       919 313201 313201 313201 313201
       920 313202 313202 313202 313202
       921 313207 313207 313207 313207
       922 313208 313208 313208 313208
       923 313209 313209 313209 313209
       924 313210 313210 313210 313210
       925 313214 313214 313214 313214
       926 313225 313225 313225 313225
       927 313227 313227 313227 313227
       928 313230 313230 313230 313230
       929 313231 313231 313231 313231
       930 313233 313233 313233 313233
       931 313234 313234 313234 313234
       932 313237 313237 313237 313237
       933 313238 313238 313238 313238
       934 313243 313243 313243 313243
       935 313244 313244 313244 313244
       936 313245 313245 313245 313245
       937 313246 313246 313246 313246
       938 313257 313257 313257 313257
       939 313262 313262 313262 313262
       940 313265 313265 313265 313265
       941 313266 313266 313266 313266
       942 313268 313268 313268 313268
       943 313269 313269 313269 313269
       944 313272 313272 313272 313272
       945 313273 313273 313273 313273
       946 313278 313278 313278 313278
       947 313279 313279 313279 313279
       948 313280 313280 313280 313280
       949 313281 313281 313281 313281
       950 313297 313297 313297 313297
       951 313299 313299 313299 313299
       952 313302 313302 313302 313302
       953 313303 313303 313303 313303
       954 313305 313305 313305 313305
       955 313306 313306 313306 313306
       956 313309 313309 313309 313309
       957 313310 313310 313310 313310
       958 313315 313315 313315 313315
       959 313316 313316 313316 313316
       960 313317 313317 313317 313317
       961 313318 313318 313318 313318
       962 313333 313333 313333 313333
       963 313335 313335 313335 313335
       964 313338 313338 313338 313338
       965 313339 313339 313339 313339
       966 313341 313341 313341 313341
       967 313342 313342 313342 313342
       968 313345 313345 313345 313345
       969 313346 313346 313346 313346
       970 313351 313351 313351 313351
       971 313353 313353 313353 313353
       972 313354 313354 313354 313354
       973 313371 313371 313371 313371
       974 313373 313373 313373 313373
       975 313376 313376 313376 313376
       976 313377 313377 313377 313377
       977 313379 313379 313379 313379
       978 313380 313380 313380 313380
       979 313383 313383 313383 313383
       980 313384 313384 313384 313384
       981 313389 313389 313389 313389
       982 313391 313391 313391 313391
       983 313392 313392 313392 313392
       984 313409 313409 313409 313409
       985 313413 313413 313413 313413
       986 313414 313414 313414 313414
       987 313416 313416 313416 313416
       988 313417 313417 313417 313417
       989 313420 313420 313420 313420
       990 313426 313426 313426 313426
       991 313428 313428 313428 313428
       992 313429 313429 313429 313429
       993 313440 313440 313440 313440
       994 313444 313444 313444 313444
       995 313446 313446 313446 313446
       996 313450 313450 313450 313450
       997 313453 313453 313453 313453
       998 313456 313456 313456 313456
       999 313458 313458 313458 313458
       1000 313459 313459 313459 313459
       1001 313462 313462 313462 313462
       1002 313463 313463 313463 313463
       1003 313468 313468 313468 313468
       1004 313470 313470 313470 313470
       1005 313471 313471 313471 313471
       1006 313484 313484 313484 313484
       1007 313490 313490 313490 313490
       1008 313491 313491 313491 313491
       1009 313495 313495 313495 313495
       1010 313496 313496 313496 313496
       1011 313498 313498 313498 313498
       1012 313499 313499 313499 313499
       1013 313502 313502 313502 313502
       1014 313503 313503 313503 313503
       1015 313507 313507 313507 313507
       1016 313509 313509 313509 313509
       1017 313510 313510 313510 313510
       1018 313522 313522 313522 313522
       1019 313527 313527 313527 313527
       1020 313529 313529 313529 313529
       1021 313533 313533 313533 313533
       1022 313536 313536 313536 313536
       1023 313537 313537 313537 313537
       1024 313539 313539 313539 313539
       1025 313542 313542 313542 313542
       1026 313544 313544 313544 313544
       1027 313545 313545 313545 313545
       1028 313557 313557 313557 313557
       1029 313563 313563 313563 313563
       1030 313565 313565 313565 313565
       1031 313568 313568 313568 313568
       1032 313572 313572 313572 313572
       1033 313575 313575 313575 313575
       1034 313576 313576 313576 313576
       1035 313581 313581 313581 313581
       1036 313583 313583 313583 313583
       1037 313584 313584 313584 313584
       1038 313600 313600 313600 313600
       1039 313602 313602 313602 313602
       1040 313605 313605 313605 313605
       1041 313609 313609 313609 313609
       1042 313612 313612 313612 313612
       1043 313613 313613 313613 313613
       1044 313618 313618 313618 313618
       1045 313620 313620 313620 313620
       1046 313621 313621 313621 313621
       1047 313634 313634 313634 313634
       1048 313642 313642 313642 313642
       1049 313644 313644 313644 313644
       1050 313647 313647 313647 313647
       1051 313651 313651 313651 313651
       1052 313654 313654 313654 313654
       1053 313655 313655 313655 313655
       1054 313660 313660 313660 313660
       1055 313662 313662 313662 313662
       1056 313663 313663 313663 313663
       1057 313680 313680 313680 313680
       1058 313682 313682 313682 313682
       1059 313685 313685 313685 313685
       1060 313689 313689 313689 313689
       1061 313692 313692 313692 313692
       1062 313693 313693 313693 313693
       1063 313698 313698 313698 313698
       1064 313700 313700 313700 313700
       1065 313701 313701 313701 313701
       1066 313719 313719 313719 313719
       1067 313721 313721 313721 313721
       1068 313724 313724 313724 313724
       1069 313728 313728 313728 313728
       1070 313731 313731 313731 313731
       1071 313736 313736 313736 313736
       1072 313738 313738 313738 313738
       1073 313739 313739 313739 313739
       1074 313761 313761 313761 313761
       1075 313763 313763 313763 313763
       1076 313766 313766 313766 313766
       1077 313771 313771 313771 313771
       1078 313773 313773 313773 313773
       1079 313775 313775 313775 313775
       1080 313778 313778 313778 313778
       1081 313780 313780 313780 313780
       1082 313781 313781 313781 313781
       1083 313795 313795 313795 313795
       1084 313800 313800 313800 313800
       1085 313801 313801 313801 313801
       1086 313803 313803 313803 313803
       1087 313807 313807 313807 313807
       1088 313811 313811 313811 313811
       1089 313813 313813 313813 313813
       1090 313816 313816 313816 313816
       1091 313818 313818 313818 313818
       1092 313819 313819 313819 313819
       1093 313831 313831 313831 313831
       1094 313836 313836 313836 313836
       1095 313838 313838 313838 313838
       1096 313840 313840 313840 313840
       1097 313844 313844 313844 313844
       1098 313847 313847 313847 313847
       1099 313850 313850 313850 313850
       1100 313853 313853 313853 313853
       1101 313855 313855 313855 313855
       1102 313856 313856 313856 313856
       1103 313869 313869 313869 313869
       1104 313873 313873 313873 313873
       1105 313875 313875 313875 313875
       1106 313877 313877 313877 313877
       1107 313881 313881 313881 313881
       1108 313884 313884 313884 313884
       1109 313887 313887 313887 313887
       1110 313890 313890 313890 313890
       1111 313892 313892 313892 313892
       1112 313893 313893 313893 313893
       1113 313905 313905 313905 313905
       1114 313909 313909 313909 313909
       1115 313913 313913 313913 313913
       1116 313915 313915 313915 313915
       1117 313918 313918 313918 313918
       1118 313922 313922 313922 313922
       1119 313925 313925 313925 313925
       1120 313928 313928 313928 313928
       1121 313931 313931 313931 313931
       1122 313933 313933 313933 313933
       1123 313934 313934 313934 313934
       1124 313951 313951 313951 313951
       1125 313953 313953 313953 313953
       1126 313956 313956 313956 313956
       1127 313960 313960 313960 313960
       1128 313963 313963 313963 313963
       1129 313966 313966 313966 313966
       1130 313970 313970 313970 313970
       1131 313971 313971 313971 313971
       1132 313986 313986 313986 313986
       1133 313988 313988 313988 313988
       1134 313991 313991 313991 313991
       1135 313995 313995 313995 313995
       1136 313998 313998 313998 313998
       1137 314001 314001 314001 314001
       1138 314004 314004 314004 314004
       1139 314006 314006 314006 314006
       1140 314007 314007 314007 314007
       1141 314012 314012 314012 314012
       1142 314022 314022 314022 314022
       1143 314027 314027 314027 314027
       1144 314029 314029 314029 314029
       1145 314032 314032 314032 314032
       1146 314035 314035 314035 314035
       1147 314038 314038 314038 314038
       1148 314041 314041 314041 314041
       1149 314044 314044 314044 314044
       1150 314046 314046 314046 314046
       1151 314047 314047 314047 314047
       1152 314052 314052 314052 314052
       1153 314064 314064 314064 314064
       1154 314066 314066 314066 314066
       1155 314069 314069 314069 314069
       1156 314073 314073 314073 314073
       1157 314076 314076 314076 314076
       1158 314079 314079 314079 314079
       1159 314082 314082 314082 314082
       1160 314084 314084 314084 314084
       1161 314085 314085 314085 314085
       1162 314090 314090 314090 314090
       1163 314097 314097 314097 314097
       1164 314103 314103 314103 314103
       1165 314108 314108 314108 314108
       1166 314111 314111 314111 314111
       1167 314114 314114 314114 314114
       1168 314117 314117 314117 314117
       1169 314120 314120 314120 314120
       1170 314122 314122 314122 314122
       1171 314123 314123 314123 314123
       1172 314128 314128 314128 314128
       1173 314135 314135 314135 314135
       1174 314141 314141 314141 314141
       1175 314143 314143 314143 314143
       1176 314145 314145 314145 314145
       1177 314149 314149 314149 314149
       1178 314152 314152 314152 314152
       1179 314155 314155 314155 314155
       1180 314158 314158 314158 314158
       1181 314160 314160 314160 314160
       1182 314161 314161 314161 314161
       1183 314166 314166 314166 314166
       1184 314176 314176 314176 314176
       1185 314183 314183 314183 314183
       1186 314185 314185 314185 314185
       1187 314188 314188 314188 314188
       1188 314192 314192 314192 314192
       1189 314195 314195 314195 314195
       1190 314198 314198 314198 314198
       1191 314203 314203 314203 314203
       1192 314204 314204 314204 314204
       1193 314209 314209 314209 314209
       1194 314219 314219 314219 314219
       1195 314221 314221 314221 314221
       1196 314224 314224 314224 314224
       1197 314228 314228 314228 314228
       1198 314231 314231 314231 314231
       1199 314234 314234 314234 314234
       1200 314239 314239 314239 314239
       1201 314240 314240 314240 314240
       1202 314245 314245 314245 314245
       1203 314255 314255 314255 314255
       1204 314257 314257 314257 314257
       1205 314259 314259 314259 314259
       1206 314262 314262 314262 314262
       1207 314266 314266 314266 314266
       1208 314269 314269 314269 314269
       1209 314272 314272 314272 314272
       1210 314277 314277 314277 314277
       1211 314278 314278 314278 314278
       1212 314283 314283 314283 314283
       1213 314289 314289 314289 314289
       1214 314294 314294 314294 314294
       1215 314296 314296 314296 314296
       1216 314298 314298 314298 314298
       1217 314301 314301 314301 314301
       1218 314305 314305 314305 314305
       1219 314308 314308 314308 314308
       1220 314311 314311 314311 314311
       1221 314316 314316 314316 314316
       1222 314317 314317 314317 314317
       1223 314321 314321 314321 314321
       1224 314322 314322 314322 314322
       1225 314334 314334 314334 314334
       1226 314336 314336 314336 314336
       1227 314338 314338 314338 314338
       1228 314342 314342 314342 314342
       1229 314345 314345 314345 314345
       1230 314348 314348 314348 314348
       1231 314351 314351 314351 314351
       1232 314356 314356 314356 314356
       1233 314357 314357 314357 314357
       1234 314361 314361 314361 314361
       1235 314362 314362 314362 314362
       1236 314370 314370 314370 314370
       1237 314372 314372 314372 314372
       1238 314374 314374 314374 314374
       1239 314377 314377 314377 314377
       1240 314381 314381 314381 314381
       1241 314386 314386 314386 314386
       1242 314391 314391 314391 314391
       1243 314392 314392 314392 314392
       1244 314396 314396 314396 314396
       1245 314397 314397 314397 314397
       1246 314405 314405 314405 314405
       1247 314409 314409 314409 314409
       1248 314410 314410 314410 314410
       1249 314412 314412 314412 314412
       1250 314414 314414 314414 314414
       1251 314417 314417 314417 314417
       1252 314421 314421 314421 314421
       1253 314427 314427 314427 314427
       1254 314432 314432 314432 314432
       1255 314433 314433 314433 314433
       1256 314437 314437 314437 314437
       1257 314438 314438 314438 314438
       1258 314450 314450 314450 314450
       1259 314451 314451 314451 314451
       1260 314453 314453 314453 314453
       1261 314455 314455 314455 314455
       1262 314457 314457 314457 314457
       1263 314460 314460 314460 314460
       1264 314464 314464 314464 314464
       1265 314470 314470 314470 314470
       1266 314475 314475 314475 314475
       1267 314476 314476 314476 314476
       1268 314480 314480 314480 314480
       1269 314481 314481 314481 314481
       1270 314488 314488 314488 314488
       1271 314492 314492 314492 314492
       1272 314493 314493 314493 314493
       1273 314495 314495 314495 314495
       1274 314497 314497 314497 314497
       1275 314500 314500 314500 314500
       1276 314504 314504 314504 314504
       1277 314510 314510 314510 314510
       1278 314515 314515 314515 314515
       1279 314516 314516 314516 314516
       1280 314520 314520 314520 314520
       1281 314521 314521 314521 314521
       1282 314528 314528 314528 314528
       1283 314530 314530 314530 314530
       1284 314531 314531 314531 314531
       1285 314533 314533 314533 314533
       1286 314535 314535 314535 314535
       1287 314538 314538 314538 314538
       1288 314542 314542 314542 314542
       1289 314547 314547 314547 314547
       1290 314552 314552 314552 314552
       1291 314553 314553 314553 314553
       1292 314557 314557 314557 314557
       1293 314558 314558 314558 314558
       1294 314565 314565 314565 314565
       1295 314568 314568 314568 314568
       1296 314569 314569 314569 314569
       1297 314571 314571 314571 314571
       1298 314573 314573 314573 314573
       1299 314576 314576 314576 314576
       1300 314580 314580 314580 314580
       1301 314585 314585 314585 314585
       1302 314590 314590 314590 314590
       1303 314591 314591 314591 314591
       1304 314595 314595 314595 314595
       1305 314596 314596 314596 314596
       1306 314604 314604 314604 314604
       1307 314605 314605 314605 314605
       1308 314607 314607 314607 314607
       1309 314609 314609 314609 314609
       1310 314612 314612 314612 314612
       1311 314616 314616 314616 314616
       1312 314621 314621 314621 314621
       1313 314626 314626 314626 314626
       1314 314627 314627 314627 314627
       1315 314631 314631 314631 314631
       1316 314632 314632 314632 314632
       1317 314638 314638 314638 314638
       1318 314639 314639 314639 314639
       1319 314642 314642 314642 314642
       1320 314644 314644 314644 314644
       1321 314646 314646 314646 314646
       1322 314649 314649 314649 314649
       1323 314653 314653 314653 314653
       1324 314659 314659 314659 314659
       1325 314664 314664 314664 314664
       1326 314665 314665 314665 314665
       1327 314669 314669 314669 314669
       1328 314670 314670 314670 314670
       1329 314676 314676 314676 314676
       1330 314679 314679 314679 314679
       1331 314680 314680 314680 314680
       1332 314683 314683 314683 314683
       1333 314686 314686 314686 314686
       1334 314689 314689 314689 314689
       1335 314695 314695 314695 314695
       1336 314700 314700 314700 314700
       1337 314701 314701 314701 314701
       1338 314705 314705 314705 314705
       1339 314706 314706 314706 314706
       1340 314712 314712 314712 314712
       1341 314713 314713 314713 314713
       1342 314716 314716 314716 314716
       1343 314717 314717 314717 314717
       1344 314719 314719 314719 314719
       1345 314721 314721 314721 314721
       1346 314724 314724 314724 314724
       1347 314728 314728 314728 314728
       1348 314733 314733 314733 314733
       1349 314738 314738 314738 314738
       1350 314739 314739 314739 314739
       1351 314743 314743 314743 314743
       1352 314744 314744 314744 314744
       1353 314753 314753 314753 314753
       1354 314754 314754 314754 314754
       1355 314757 314757 314757 314757
       1356 314761 314761 314761 314761
       1357 314764 314764 314764 314764
       1358 314770 314770 314770 314770
       1359 314775 314775 314775 314775
       1360 314776 314776 314776 314776
       1361 314780 314780 314780 314780
       1362 314781 314781 314781 314781
       1363 314789 314789 314789 314789
       1364 314790 314790 314790 314790
       1365 314793 314793 314793 314793
       1366 314796 314796 314796 314796
       1367 314800 314800 314800 314800
       1368 314806 314806 314806 314806
       1369 314812 314812 314812 314812
       1370 314816 314816 314816 314816
       1371 314817 314817 314817 314817
       1372 314823 314823 314823 314823
       1373 314828 314828 314828 314828
       1374 314829 314829 314829 314829
       1375 314833 314833 314833 314833
       1376 314836 314836 314836 314836
       1377 314839 314839 314839 314839
       1378 314845 314845 314845 314845
       1379 314850 314850 314850 314850
       1380 314854 314854 314854 314854
       1381 314855 314855 314855 314855
       1382 314863 314863 314863 314863
       1383 314864 314864 314864 314864
       1384 314868 314868 314868 314868
       1385 314871 314871 314871 314871
       1386 314875 314875 314875 314875
       1387 314881 314881 314881 314881
       1388 314886 314886 314886 314886
       1389 314890 314890 314890 314890
       1390 314891 314891 314891 314891
       1391 314892 314892 314892 314892
       1392 314899 314899 314899 314899
       1393 314902 314902 314902 314902
       1394 314906 314906 314906 314906
       1395 314909 314909 314909 314909
       1396 314913 314913 314913 314913
       1397 314919 314919 314919 314919
       1398 314925 314925 314925 314925
       1399 314929 314929 314929 314929
       1400 314930 314930 314930 314930
       1401 314931 314931 314931 314931
       1402 314937 314937 314937 314937
       1403 314941 314941 314941 314941
       1404 314942 314942 314942 314942
       1405 314946 314946 314946 314946
       1406 314949 314949 314949 314949
       1407 314953 314953 314953 314953
       1408 314959 314959 314959 314959
       1409 314965 314965 314965 314965
       1410 314969 314969 314969 314969
       1411 314970 314970 314970 314970
       1412 314971 314971 314971 314971
       1413 314979 314979 314979 314979
       1414 314980 314980 314980 314980
       1415 314984 314984 314984 314984
       1416 314987 314987 314987 314987
       1417 314991 314991 314991 314991
       1418 314997 314997 314997 314997
       1419 315003 315003 315003 315003
       1420 315007 315007 315007 315007
       1421 315008 315008 315008 315008
       1422 315009 315009 315009 315009
       1423 315014 315014 315014 315014
       1424 315019 315019 315019 315019
       1425 315020 315020 315020 315020
       1426 315024 315024 315024 315024
       1427 315026 315026 315026 315026
       1428 315030 315030 315030 315030
       1429 315036 315036 315036 315036
       1430 315042 315042 315042 315042
       1431 315046 315046 315046 315046
       1432 315047 315047 315047 315047
       1433 315048 315048 315048 315048
       1434 315054 315054 315054 315054
       1435 315058 315058 315058 315058
       1436 315059 315059 315059 315059
       1437 315063 315063 315063 315063
       1438 315066 315066 315066 315066
       1439 315070 315070 315070 315070
       1440 315076 315076 315076 315076
       1441 315082 315082 315082 315082
       1442 315086 315086 315086 315086
       1443 315088 315088 315088 315088
       1444 315093 315093 315093 315093
       1445 315096 315096 315096 315096
       1446 315097 315097 315097 315097
       1447 315101 315101 315101 315101
       1448 315104 315104 315104 315104
       1449 315113 315113 315113 315113
       1450 315119 315119 315119 315119
       1451 315123 315123 315123 315123
       1452 315125 315125 315125 315125
       1453 315131 315131 315131 315131
       1454 315132 315132 315132 315132
       1455 315136 315136 315136 315136
       1456 315139 315139 315139 315139
       1457 315149 315149 315149 315149
       1458 315155 315155 315155 315155
       1459 315159 315159 315159 315159
       1460 315161 315161 315161 315161
       1461 315169 315169 315169 315169
       1462 315170 315170 315170 315170
       1463 315174 315174 315174 315174
       1464 315177 315177 315177 315177
       1465 315187 315187 315187 315187
       1466 315193 315193 315193 315193
       1467 315197 315197 315197 315197
       1468 315199 315199 315199 315199
       1469 315207 315207 315207 315207
       1470 315208 315208 315208 315208
       1471 315212 315212 315212 315212
       1472 315215 315215 315215 315215
       1473 315225 315225 315225 315225
       1474 315231 315231 315231 315231
       1475 315235 315235 315235 315235
       1476 315237 315237 315237 315237
       1477 315244 315244 315244 315244
       1478 315249 315249 315249 315249
       1479 315251 315251 315251 315251
       1480 315261 315261 315261 315261
       1481 315267 315267 315267 315267
       1482 315271 315271 315271 315271
       1483 315273 315273 315273 315273
       1484 315279 315279 315279 315279
       1485 315283 315283 315283 315283
       1486 315284 315284 315284 315284
       1487 315288 315288 315288 315288
       1488 315291 315291 315291 315291
       1489 315301 315301 315301 315301
       1490 315307 315307 315307 315307
       1491 315311 315311 315311 315311
       1492 315313 315313 315313 315313
       1493 315320 315320 315320 315320
       1494 315321 315321 315321 315321
       1495 315325 315325 315325 315325
       1496 315328 315328 315328 315328
       1497 315338 315338 315338 315338
       1498 315344 315344 315344 315344
       1499 315348 315348 315348 315348
       1500 315350 315350 315350 315350
       1501 315355 315355 315355 315355
       1502 315359 315359 315359 315359
       1503 315365 315365 315365 315365
       1504 315374 315374 315374 315374
       1505 315380 315380 315380 315380
       1506 315384 315384 315384 315384
       1507 315386 315386 315386 315386
       1508 315398 315398 315398 315398
       1509 315402 315402 315402 315402
       1510 315405 315405 315405 315405
       1511 315415 315415 315415 315415
       1512 315421 315421 315421 315421
       1513 315425 315425 315425 315425
       1514 315427 315427 315427 315427
       1515 315437 315437 315437 315437
       1516 315440 315440 315440 315440
       1517 315444 315444 315444 315444
       1518 315454 315454 315454 315454
       1519 315460 315460 315460 315460
       1520 315464 315464 315464 315464
       1521 315466 315466 315466 315466
       1522 315469 315469 315469 315469
       1523 315474 315474 315474 315474
       1524 315477 315477 315477 315477
       1525 315481 315481 315481 315481
       1526 315491 315491 315491 315491
       1527 315497 315497 315497 315497
       1528 315501 315501 315501 315501
       1529 315503 315503 315503 315503
       1530 315506 315506 315506 315506
       1531 315510 315510 315510 315510
       1532 315513 315513 315513 315513
       1533 315517 315517 315517 315517
       1534 315520 315520 315520 315520
       1535 315530 315530 315530 315530
       1536 315536 315536 315536 315536
       1537 315540 315540 315540 315540
       1538 315542 315542 315542 315542
       1539 315545 315545 315545 315545
       1540 315549 315549 315549 315549
       1541 315551 315551 315551 315551
       1542 315553 315553 315553 315553
       1543 315557 315557 315557 315557
       1544 315560 315560 315560 315560
       1545 315570 315570 315570 315570
       1546 315575 315575 315575 315575
       1547 315579 315579 315579 315579
       1548 315581 315581 315581 315581
       1549 315584 315584 315584 315584
       1550 315586 315586 315586 315586
       1551 315588 315588 315588 315588
       1552 315589 315589 315589 315589
       1553 315590 315590 315590 315590
       1554 315594 315594 315594 315594
       1555 315597 315597 315597 315597
       1556 315607 315607 315607 315607
       1557 315613 315613 315613 315613
       1558 315617 315617 315617 315617
       1559 315619 315619 315619 315619
       1560 315622 315622 315622 315622
       1561 315627 315627 315627 315627
       1562 315628 315628 315628 315628
       1563 315632 315632 315632 315632
       1564 315635 315635 315635 315635
       1565 315645 315645 315645 315645
       1566 315651 315651 315651 315651
       1567 315655 315655 315655 315655
       1568 315657 315657 315657 315657
       1569 315660 315660 315660 315660
       1570 315667 315667 315667 315667
       1571 315668 315668 315668 315668
       1572 315669 315669 315669 315669
       1573 315673 315673 315673 315673
       1574 315676 315676 315676 315676
       1575 315686 315686 315686 315686
       1576 315692 315692 315692 315692
       1577 315696 315696 315696 315696
       1578 315698 315698 315698 315698
       1579 315701 315701 315701 315701
       1580 315707 315707 315707 315707
       1581 315708 315708 315708 315708
       1582 315709 315709 315709 315709
       1583 315713 315713 315713 315713
       1584 315716 315716 315716 315716
       1585 315726 315726 315726 315726
       1586 315732 315732 315732 315732
       1587 315736 315736 315736 315736
       1588 315738 315738 315738 315738
       1589 315741 315741 315741 315741
       1590 315744 315744 315744 315744
       1591 315745 315745 315745 315745
       1592 315746 315746 315746 315746
       1593 315750 315750 315750 315750
       1594 315753 315753 315753 315753
       1595 315763 315763 315763 315763
       1596 315769 315769 315769 315769
       1597 315773 315773 315773 315773
       1598 315775 315775 315775 315775
       1599 315778 315778 315778 315778
       1600 315780 315780 315780 315780
       1601 315782 315782 315782 315782
       1602 315784 315784 315784 315784
       1603 315785 315785 315785 315785
       1604 315786 315786 315786 315786
       1605 315790 315790 315790 315790
       1606 315793 315793 315793 315793
       1607 315803 315803 315803 315803
       1608 315809 315809 315809 315809
       1609 315813 315813 315813 315813
       1610 315815 315815 315815 315815
       1611 315818 315818 315818 315818
       1612 315820 315820 315820 315820
       1613 315822 315822 315822 315822
       1614 315823 315823 315823 315823
       1615 315824 315824 315824 315824
       1616 315828 315828 315828 315828
       1617 315831 315831 315831 315831
       1618 315841 315841 315841 315841
       1619 315847 315847 315847 315847
       1620 315851 315851 315851 315851
       1621 315853 315853 315853 315853
       1622 315856 315856 315856 315856
       1623 315861 315861 315861 315861
       1624 315862 315862 315862 315862
       1625 315866 315866 315866 315866
       1626 315869 315869 315869 315869
       1627 315879 315879 315879 315879
       1628 315885 315885 315885 315885
       1629 315889 315889 315889 315889
       1630 315891 315891 315891 315891
       1631 315894 315894 315894 315894
       1632 315899 315899 315899 315899
       1633 315901 315901 315901 315901
       1634 315902 315902 315902 315902
       1635 315906 315906 315906 315906
       1636 315909 315909 315909 315909
       1637 315919 315919 315919 315919
       1638 315925 315925 315925 315925
       1639 315929 315929 315929 315929
       1640 315931 315931 315931 315931
       1641 315934 315934 315934 315934
       1642 315936 315936 315936 315936
       1643 315937 315937 315937 315937
       1644 315938 315938 315938 315938
       1645 315942 315942 315942 315942
       1646 315945 315945 315945 315945
       1647 315955 315955 315955 315955
       1648 315961 315961 315961 315961
       1649 315965 315965 315965 315965
       1650 315967 315967 315967 315967
       1651 315970 315970 315970 315970
       1652 315974 315974 315974 315974
       1653 315976 315976 315976 315976
       1654 315977 315977 315977 315977
       1655 315981 315981 315981 315981
       1656 315984 315984 315984 315984
       1657 315993 315993 315993 315993
       1658 315999 315999 315999 315999
       1659 316003 316003 316003 316003
       1660 316005 316005 316005 316005
       1661 316008 316008 316008 316008
       1662 316011 316011 316011 316011
       1663 316012 316012 316012 316012
       1664 316014 316014 316014 316014
       1665 316016 316016 316016 316016
       1666 316017 316017 316017 316017
       1667 316021 316021 316021 316021
       1668 316024 316024 316024 316024
       1669 316029 316029 316029 316029
       1670 316034 316034 316034 316034
       1671 316040 316040 316040 316040
       1672 316044 316044 316044 316044
       1673 316046 316046 316046 316046
       1674 316049 316049 316049 316049
       1675 316051 316051 316051 316051
       1676 316053 316053 316053 316053
       1677 316054 316054 316054 316054
       1678 316058 316058 316058 316058
       1679 316061 316061 316061 316061
       1680 316071 316071 316071 316071
       1681 316077 316077 316077 316077
       1682 316081 316081 316081 316081
       1683 316083 316083 316083 316083
       1684 316086 316086 316086 316086
       1685 316091 316091 316091 316091
       1686 316092 316092 316092 316092
       1687 316096 316096 316096 316096
       1688 316108 316108 316108 316108
       1689 316114 316114 316114 316114
       1690 316118 316118 316118 316118
       1691 316120 316120 316120 316120
       1692 316123 316123 316123 316123
       1693 316131 316131 316131 316131
       1694 316132 316132 316132 316132
       1695 316136 316136 316136 316136
       1696 316148 316148 316148 316148
       1697 316154 316154 316154 316154
       1698 316158 316158 316158 316158
       1699 316160 316160 316160 316160
       1700 316163 316163 316163 316163
       1701 316166 316166 316166 316166
       1702 316167 316167 316167 316167
       1703 316169 316169 316169 316169
       1704 316173 316173 316173 316173
       1705 316186 316186 316186 316186
       1706 316192 316192 316192 316192
       1707 316196 316196 316196 316196
       1708 316198 316198 316198 316198
       1709 316201 316201 316201 316201
       1710 316208 316208 316208 316208
       1711 316209 316209 316209 316209
       1712 316213 316213 316213 316213
       1713 316226 316226 316226 316226
       1714 316232 316232 316232 316232
       1715 316236 316236 316236 316236
       1716 316238 316238 316238 316238
       1717 316241 316241 316241 316241
       1718 316245 316245 316245 316245
       1719 316246 316246 316246 316246
       1720 316250 316250 316250 316250
       1721 316262 316262 316262 316262
       1722 316268 316268 316268 316268
       1723 316272 316272 316272 316272
       1724 316274 316274 316274 316274
       1725 316275 316275 316275 316275
       1726 316277 316277 316277 316277
       1727 316279 316279 316279 316279
       1728 316283 316283 316283 316283
       1729 316296 316296 316296 316296
       1730 316302 316302 316302 316302
       1731 316306 316306 316306 316306
       1732 316308 316308 316308 316308
       1733 316309 316309 316309 316309
       1734 316311 316311 316311 316311
       1735 316313 316313 316313 316313
       1736 316318 316318 316318 316318
       1737 316331 316331 316331 316331
       1738 316337 316337 316337 316337
       1739 316341 316341 316341 316341
       1740 316343 316343 316343 316343
       1741 316344 316344 316344 316344
       1742 316346 316346 316346 316346
       1743 316349 316349 316349 316349
       1744 316354 316354 316354 316354
       1745 316366 316366 316366 316366
       1746 316372 316372 316372 316372
       1747 316376 316376 316376 316376
       1748 316378 316378 316378 316378
       1749 316379 316379 316379 316379
       1750 316381 316381 316381 316381
       1751 316384 316384 316384 316384
       1752 316386 316386 316386 316386
       1753 316390 316390 316390 316390
       1754 316402 316402 316402 316402
       1755 316408 316408 316408 316408
       1756 316412 316412 316412 316412
       1757 316414 316414 316414 316414
       1758 316415 316415 316415 316415
       1759 316417 316417 316417 316417
       1760 316420 316420 316420 316420
       1761 316422 316422 316422 316422
       1762 316427 316427 316427 316427
       1763 316440 316440 316440 316440
       1764 316446 316446 316446 316446
       1765 316450 316450 316450 316450
       1766 316452 316452 316452 316452
       1767 316453 316453 316453 316453
       1768 316455 316455 316455 316455
       1769 316458 316458 316458 316458
       1770 316463 316463 316463 316463
       1771 316480 316480 316480 316480
       1772 316484 316484 316484 316484
       1773 316486 316486 316486 316486
       1774 316487 316487 316487 316487
       1775 316489 316489 316489 316489
       1776 316492 316492 316492 316492
       1777 316494 316494 316494 316494
       1778 316500 316500 316500 316500
       1779 316518 316518 316518 316518
       1780 316522 316522 316522 316522
       1781 316524 316524 316524 316524
       1782 316525 316525 316525 316525
       1783 316527 316527 316527 316527
       1784 316531 316531 316531 316531
       1785 316533 316533 316533 316533
       1786 316535 316535 316535 316535
       1787 316540 316540 316540 316540
       1788 316557 316557 316557 316557
       1789 316563 316563 316563 316563
       1790 316564 316564 316564 316564
       1791 316566 316566 316566 316566
       1792 316568 316568 316568 316568
       1793 316571 316571 316571 316571
       1794 316576 316576 316576 316576
       1795 316589 316589 316589 316589
       1796 316592 316592 316592 316592
       1797 316595 316595 316595 316595
       1798 316601 316601 316601 316601
       1799 316602 316602 316602 316602
       1800 316604 316604 316604 316604
       1801 316615 316615 316615 316615
       1802 316628 316628 316628 316628
       1803 316631 316631 316631 316631
       1804 316634 316634 316634 316634
       1805 316640 316640 316640 316640
       1806 316641 316641 316641 316641
       1807 316643 316643 316643 316643
       1808 316654 316654 316654 316654
       1809 316667 316667 316667 316667
       1810 316670 316670 316670 316670
       1811 316673 316673 316673 316673
       1812 316677 316677 316677 316677
       1813 316679 316679 316679 316679
       1814 316680 316680 316680 316680
       1815 316682 316682 316682 316682
       1816 316703 316703 316703 316703
       1817 316706 316706 316706 316706
       1818 316709 316709 316709 316709
       1819 316713 316713 316713 316713
       1820 316715 316715 316715 316715
       1821 316716 316716 316716 316716
       1822 316718 316718 316718 316718
       1823 316730 316730 316730 316730
       1824 316743 316743 316743 316743
       1825 316746 316746 316746 316746
       1826 316753 316753 316753 316753
       1827 316755 316755 316755 316755
       1828 316756 316756 316756 316756
       1829 316758 316758 316758 316758
       1830 316768 316768 316768 316768
       1831 316782 316782 316782 316782
       1832 316785 316785 316785 316785
       1833 316792 316792 316792 316792
       1834 316794 316794 316794 316794
       1835 316795 316795 316795 316795
       1836 316797 316797 316797 316797
       1837 316800 316800 316800 316800
       1838 316808 316808 316808 316808
       1839 316821 316821 316821 316821
       1840 316824 316824 316824 316824
       1841 316831 316831 316831 316831
       1842 316833 316833 316833 316833
       1843 316834 316834 316834 316834
       1844 316836 316836 316836 316836
       1845 316844 316844 316844 316844
       1846 316848 316848 316848 316848
       1847 316862 316862 316862 316862
       1848 316865 316865 316865 316865
       1849 316872 316872 316872 316872
       1850 316874 316874 316874 316874
       1851 316875 316875 316875 316875
       1852 316877 316877 316877 316877
       1853 316890 316890 316890 316890
       1854 316903 316903 316903 316903
       1855 316905 316905 316905 316905
       1856 316911 316911 316911 316911
       1857 316913 316913 316913 316913
       1858 316914 316914 316914 316914
       1859 316916 316916 316916 316916
       1860 316919 316919 316919 316919
       1861 316929 316929 316929 316929
       1862 316933 316933 316933 316933
       1863 316942 316942 316942 316942
       1864 316945 316945 316945 316945
       1865 316947 316947 316947 316947
       1866 316952 316952 316952 316952
       1867 316954 316954 316954 316954
       1868 316955 316955 316955 316955
       1869 316957 316957 316957 316957
       1870 316961 316961 316961 316961
       1871 316970 316970 316970 316970
       1872 316982 316982 316982 316982
       1873 316985 316985 316985 316985
       1874 316987 316987 316987 316987
       1875 316992 316992 316992 316992
       1876 316994 316994 316994 316994
       1877 316995 316995 316995 316995
[...]
     number of failed tshell elements = 0
 f a i l e d   e l e m e n t   r e p o r t  time=  3.9832E-05
     number of failed solid  elements = 51
     number of failed beam   elements = 0
     number of failed shell  elements = 0
     number of failed tshell elements = 0
 f a i l e d   e l e m e n t   r e p o r t  time=  3.9907E-05
     number of failed solid  elements = 51
     number of failed beam   elements = 0
     number of failed shell  elements = 0
     number of failed tshell elements = 0
 f a i l e d   e l e m e n t   r e p o r t  time=  3.9916E-05
     number of failed solid  elements = 51
     number of failed beam   elements = 0
     number of failed shell  elements = 0
     number of failed tshell elements = 0
 f a i l e d   e l e m e n t   r e p o r t  time=  3.9985E-05
     number of failed solid  elements = 51
     number of failed beam   elements = 0
     number of failed shell  elements = 0
     number of failed tshell elements = 0
 Element deleted due to damage
      node  number 301630 deleted at time  4.0259E-05
      node  number 18532 deleted at time  4.0259E-05
     solid element 33841  failed at time  4.0259E-05
 f a i l e d   e l e m e n t   r e p o r t  time=  4.0259E-05
     number of failed solid  elements = 52
     number of failed beam   elements = 0
     number of failed shell  elements = 0
     number of failed tshell elements = 0
 f a i l e d   e l e m e n t   r e p o r t  time=  4.0528E-05
     number of failed solid  elements = 52
     number of failed beam   elements = 0
     number of failed shell  elements = 0
     number of failed tshell elements = 0
 f a i l e d   e l e m e n t   r e p o r t  time=  4.0579E-05
     number of failed solid  elements = 52
     number of failed beam   elements = 0
     number of failed shell  elements = 0
     number of failed tshell elements = 0
 f a i l e d   e l e m e n t   r e p o r t  time=  4.0852E-05
     number of failed solid  elements = 52
     number of failed beam   elements = 0
     number of failed shell  elements = 0
     number of failed tshell elements = 0
 Element deleted due to damage
     solid element 38568  failed at time  4.1017E-05
 f a i l e d   e l e m e n t   r e p o r t  time=  4.1017E-05
     number of failed solid  elements = 53
     number of failed beam   elements = 0
     number of failed shell  elements = 0
     number of failed tshell elements = 0
 f a i l e d   e l e m e n t   r e p o r t  time=  4.1103E-05
     number of failed solid  elements = 53
     number of failed beam   elements = 0
     number of failed shell  elements = 0
     number of failed tshell elements = 0
 f a i l e d   e l e m e n t   r e p o r t  time=  4.1164E-05
     number of failed solid  elements = 53
     number of failed beam   elements = 0
     number of failed shell  elements = 0
     number of failed tshell elements = 0
 f a i l e d   e l e m e n t   r e p o r t  time=  4.1183E-05
     number of failed solid  elements = 53
     number of failed beam   elements = 0
     number of failed shell  elements = 0
     number of failed tshell elements = 0
 Element deleted due to damage
      node  number 301665 deleted at time  4.1380E-05
      node  number 20241 deleted at time  4.1380E-05
     solid element 35212  failed at time  4.1380E-05
 f a i l e d   e l e m e n t   r e p o r t  time=  4.1380E-05
     number of failed solid  elements = 54
     number of failed beam   elements = 0
     number of failed shell  elements = 0
     number of failed tshell elements = 0
 f a i l e d   e l e m e n t   r e p o r t  time=  4.1457E-05
     number of failed solid  elements = 54
     number of failed beam   elements = 0
     number of failed shell  elements = 0
     number of failed tshell elements = 0
 f a i l e d   e l e m e n t   r e p o r t  time=  4.1479E-05
     number of failed solid  elements = 54
     number of failed beam   elements = 0
     number of failed shell  elements = 0
     number of failed tshell elements = 0
 f a i l e d   e l e m e n t   r e p o r t  time=  4.1500E-05
     number of failed solid  elements = 54
     number of failed beam   elements = 0
     number of failed shell  elements = 0
     number of failed tshell elements = 0
 Element deleted due to damage
     solid element 30830  failed at time  4.1919E-05
 f a i l e d   e l e m e n t   r e p o r t  time=  4.1919E-05
     number of failed solid  elements = 55
     number of failed beam   elements = 0
     number of failed shell  elements = 0
     number of failed tshell elements = 0
 f a i l e d   e l e m e n t   r e p o r t  time=  4.2203E-05
     number of failed solid  elements = 55
     number of failed beam   elements = 0
     number of failed shell  elements = 0
     number of failed tshell elements = 0
 f a i l e d   e l e m e n t   r e p o r t  time=  4.2216E-05
     number of failed solid  elements = 55
     number of failed beam   elements = 0
     number of failed shell  elements = 0
     number of failed tshell elements = 0
 f a i l e d   e l e m e n t   r e p o r t  time=  4.2422E-05
     number of failed solid  elements = 55
     number of failed beam   elements = 0
     number of failed shell  elements = 0
     number of failed tshell elements = 0
 f a i l e d   e l e m e n t   r e p o r t  time=  4.2673E-05
     number of failed solid  elements = 55
     number of failed beam   elements = 0
     number of failed shell  elements = 0
     number of failed tshell elements = 0
 f a i l e d   e l e m e n t   r e p o r t  time=  4.2694E-05
     number of failed solid  elements = 55
     number of failed beam   elements = 0
     number of failed shell  elements = 0
     number of failed tshell elements = 0
 Element deleted due to damage
      node  number 301671 deleted at time  4.2696E-05
      node  number 20485 deleted at time  4.2696E-05
     solid element 35405  failed at time  4.2696E-05
 f a i l e d   e l e m e n t   r e p o r t  time=  4.2696E-05
     number of failed solid  elements = 56
     number of failed beam   elements = 0
     number of failed shell  elements = 0
     number of failed tshell elements = 0
 Element deleted due to damage
     solid element 39119  failed at time  4.3153E-05
 f a i l e d   e l e m e n t   r e p o r t  time=  4.3153E-05
     number of failed solid  elements = 57
     number of failed beam   elements = 0
     number of failed shell  elements = 0
     number of failed tshell elements = 0
 f a i l e d   e l e m e n t   r e p o r t  time=  4.3473E-05
     number of failed solid  elements = 57
     number of failed beam   elements = 0
     number of failed shell  elements = 0
     number of failed tshell elements = 0
 f a i l e d   e l e m e n t   r e p o r t  time=  4.3619E-05
     number of failed solid  elements = 57
     number of failed beam   elements = 0
     number of failed shell  elements = 0
     number of failed tshell elements = 0
 Element deleted due to damage
     solid element 37865  failed at time  4.3940E-05
 f a i l e d   e l e m e n t   r e p o r t  time=  4.3940E-05
     number of failed solid  elements = 58
     number of failed beam   elements = 0
     number of failed shell  elements = 0
     number of failed tshell elements = 0
 Element deleted due to damage
     solid element 30394  failed at time  4.4013E-05
 f a i l e d   e l e m e n t   r e p o r t  time=  4.4013E-05
     number of failed solid  elements = 59
     number of failed beam   elements = 0
     number of failed shell  elements = 0
     number of failed tshell elements = 0
 Element deleted due to damage
     solid element 33970  failed at time  4.4037E-05
 f a i l e d   e l e m e n t   r e p o r t  time=  4.4037E-05
     number of failed solid  elements = 60
     number of failed beam   elements = 0
     number of failed shell  elements = 0
     number of failed tshell elements = 0
 Element deleted due to damage
     solid element 32660  failed at time  4.4567E-05
 f a i l e d   e l e m e n t   r e p o r t  time=  4.4567E-05
     number of failed solid  elements = 61
     number of failed beam   elements = 0
     number of failed shell  elements = 0
     number of failed tshell elements = 0
 Element deleted due to damage
     solid element 30732  failed at time  4.5075E-05
 Element deleted due to damage
     solid element 31009  failed at time  4.5075E-05
 f a i l e d   e l e m e n t   r e p o r t  time=  4.5075E-05
     number of failed solid  elements = 63
     number of failed beam   elements = 0
     number of failed shell  elements = 0
     number of failed tshell elements = 0
 Element deleted due to damage
     solid element 34005  failed at time  4.5833E-05
 f a i l e d   e l e m e n t   r e p o r t  time=  4.5833E-05
     number of failed solid  elements = 64
     number of failed beam   elements = 0
     number of failed shell  elements = 0
     number of failed tshell elements = 0
 Element deleted due to damage
     solid element 30083  failed at time  4.6573E-05
 f a i l e d   e l e m e n t   r e p o r t  time=  4.6573E-05
     number of failed solid  elements = 65
     number of failed beam   elements = 0
     number of failed shell  elements = 0
     number of failed tshell elements = 0
 f a i l e d   e l e m e n t   r e p o r t  time=  4.7133E-05
     number of failed solid  elements = 65
     number of failed beam   elements = 0
     number of failed shell  elements = 0
     number of failed tshell elements = 0
 Element deleted due to damage
     solid element 30663  failed at time  4.7958E-05
 f a i l e d   e l e m e n t   r e p o r t  time=  4.7958E-05
     number of failed solid  elements = 66
     number of failed beam   elements = 0
     number of failed shell  elements = 0
     number of failed tshell elements = 0
 f a i l e d   e l e m e n t   r e p o r t  time=  4.8527E-05
     number of failed solid  elements = 66
     number of failed beam   elements = 0
     number of failed shell  elements = 0
     number of failed tshell elements = 0
 Element deleted due to damage
      node  number 301753 deleted at time  4.8974E-05
      node  number 23133 deleted at time  4.8974E-05
     solid element 38605  failed at time  4.8974E-05
 f a i l e d   e l e m e n t   r e p o r t  time=  4.8974E-05
     number of failed solid  elements = 67
     number of failed beam   elements = 0
     number of failed shell  elements = 0
     number of failed tshell elements = 0
 f a i l e d   e l e m e n t   r e p o r t  time=  4.9442E-05
     number of failed solid  elements = 67
     number of failed beam   elements = 0
     number of failed shell  elements = 0
     number of failed tshell elements = 0
 f a i l e d   e l e m e n t   r e p o r t  time=  4.9573E-05
     number of failed solid  elements = 67
     number of failed beam   elements = 0
     number of failed shell  elements = 0
     number of failed tshell elements = 0
 f a i l e d   e l e m e n t   r e p o r t  time=  4.9595E-05
     number of failed solid  elements = 67
     number of failed beam   elements = 0
     number of failed shell  elements = 0
     number of failed tshell elements = 0
 f a i l e d   e l e m e n t   r e p o r t  time=  5.2175E-05
     number of failed solid  elements = 67
     number of failed beam   elements = 0
     number of failed shell  elements = 0
     number of failed tshell elements = 0
 f a i l e d   e l e m e n t   r e p o r t  time=  5.3237E-05
     number of failed solid  elements = 67
     number of failed beam   elements = 0
     number of failed shell  elements = 0
     number of failed tshell elements = 0
 Element deleted due to damage
     solid element 33811  failed at time  5.3692E-05
 f a i l e d   e l e m e n t   r e p o r t  time=  5.3692E-05
     number of failed solid  elements = 68
     number of failed beam   elements = 0
     number of failed shell  elements = 0
     number of failed tshell elements = 0
 Element deleted due to damage
     solid element 31972  failed at time  5.6581E-05
 f a i l e d   e l e m e n t   r e p o r t  time=  5.6581E-05
     number of failed solid  elements = 69
     number of failed beam   elements = 0
     number of failed shell  elements = 0
     number of failed tshell elements = 0
 Element deleted due to damage
     solid element 33825  failed at time  5.7211E-05
 f a i l e d   e l e m e n t   r e p o r t  time=  5.7211E-05
     number of failed solid  elements = 70
     number of failed beam   elements = 0
     number of failed shell  elements = 0
     number of failed tshell elements = 0
 f a i l e d   e l e m e n t   r e p o r t  time=  5.8472E-05
     number of failed solid  elements = 70
     number of failed beam   elements = 0
     number of failed shell  elements = 0
     number of failed tshell elements = 0
 Element deleted due to damage
     solid element 31049  failed at time  5.8590E-05
 f a i l e d   e l e m e n t   r e p o r t  time=  5.8590E-05
     number of failed solid  elements = 71
     number of failed beam   elements = 0
     number of failed shell  elements = 0
     number of failed tshell elements = 0

 S t o r a g e   a l l o c a t i o n   

 Memory required to complete solution   :     278K
 Additional dynamically allocated memory:      30M
                                   Total:      30M


 P r o c e s s o r   #         1

 T i m i n g   i n f o r m a t i o n
                        CPU(seconds)   %CPU  Clock(seconds) %Clock
  ----------------------------------------------------------------
  Keyword Processing ... 4.5415E-01    0.17     4.6024E-01    0.17
  MPP Decomposition .... 7.2812E-01    0.27     8.0740E-01    0.29
    Init Proc .......... 5.9223E-01    0.22     5.9464E-01    0.22
    Decomposition ...... 4.2014E-02    0.02     4.5091E-02    0.02
    Translation ........ 9.3843E-02    0.03     1.6763E-01    0.06
  Initialization ....... 1.9933E-01    0.07     3.4865E-01    0.13
    Init Proc Phase 1 .. 1.0070E-01    0.04     1.2442E-01    0.05
    Init Proc Phase 2 .. 1.1798E-02    0.00     4.0038E-02    0.01
  Init solver .......... 1.5284E-03    0.00     2.7750E-03    0.00
  Element processing ... 1.6397E+02   60.19     1.6487E+02   60.12
    Solids ............. 1.5873E+02   58.27     1.5960E+02   58.20
    E Other ............ 5.5076E-02    0.02     5.5252E-02    0.02
  Binary databases ..... 4.4605E-01    0.16     4.5728E-01    0.17
  ASCII database ....... 1.5544E+00    0.57     1.5674E+00    0.57
  Contact algorithm .... 4.8019E+01   17.63     4.8276E+01   17.60
    Interf. ID         3 1.2139E+01    4.46     1.2204E+01    4.45
    Interf. ID         2 3.1669E+01   11.63     3.1835E+01   11.61
  Rigid Bodies ......... 1.0345E-01    0.04     1.0454E-01    0.04
  DEM .................. 1.7372E+01    6.38     1.7457E+01    6.37
    DEM self contact ... 1.6880E+01    6.20     1.6966E+01    6.19
  Time step size ....... 2.3430E+00    0.86     2.3546E+00    0.86
  Group force file ..... 3.7033E-02    0.01     4.6340E-02    0.02
  Others ............... 2.2224E+00    0.82     2.2869E+00    0.83
    Force Sharing ...... 1.9747E+00    0.72     1.9837E+00    0.72
  Misc. 1 .............. 2.1568E+01    7.92     2.1689E+01    7.91
    Scale Masses ....... 1.6381E-02    0.01     1.6621E-02    0.01
    Force Constraints .. 1.9916E-02    0.01     1.9994E-02    0.01
    Force to Accel ..... 1.8387E+00    0.68     1.8447E+00    0.67
    Constraint Sharing . 2.6275E-02    0.01     2.6304E-02    0.01
    Update RB nodes .... 2.8539E-02    0.01     3.1350E-02    0.01
  Misc. 2 .............. 4.0464E+00    1.49     4.0631E+00    1.48
  Misc. 3 .............. 8.1371E+00    2.99     8.2130E+00    2.99
  Misc. 4 .............. 1.2063E+00    0.44     1.2201E+00    0.44
    Timestep Init ...... 9.9767E-01    0.37     9.9752E-01    0.36
    Apply Loads ........ 1.5644E-01    0.06     1.6643E-01    0.06
  ----------------------------------------------------------------
  T o t a l s            2.7240E+02  100.00     2.7423E+02  100.00


 A v e r a g e s

 T i m i n g   i n f o r m a t i o n
                        CPU(seconds)   %CPU  Clock(seconds) %Clock
  ----------------------------------------------------------------
  Keyword Processing ... 3.9323E-01    0.15     4.6024E-01    0.17
    KW Reading ......... 1.8906E-02    0.01     2.7352E-02    0.01
    KW Writing ......... 1.1132E-02    0.00     2.7519E-02    0.01
  MPP Decomposition .... 6.5655E-01    0.24     8.0785E-01    0.29
    Init Proc .......... 5.1980E-01    0.19     5.9430E-01    0.22
    Decomposition ...... 3.5993E-02    0.01     4.5386E-02    0.02
    Translation ........ 1.0070E-01    0.04     1.6811E-01    0.06
  Initialization ....... 1.8088E-01    0.07     3.4730E-01    0.13
    Init Proc Phase 1 .. 9.8978E-02    0.04     1.2465E-01    0.05
    Init Proc Phase 2 .. 1.1672E-02    0.00     4.0048E-02    0.01
  Init solver .......... 1.2627E-03    0.00     3.6668E-03    0.00
  Element processing ... 1.2508E+02   46.21     1.2575E+02   45.86
    Solids ............. 1.2043E+02   44.49     1.2106E+02   44.15
    E Other ............ 7.0130E-02    0.03     7.0453E-02    0.03
  Binary databases ..... 4.3579E-01    0.16     4.4998E-01    0.16
  ASCII database ....... 1.7684E+00    0.65     3.4725E+00    1.27
  Contact algorithm .... 4.8437E+01   17.90     4.8680E+01   17.75
    Interf. ID         3 1.2353E+01    4.56     1.2413E+01    4.53
    Interf. ID         2 3.0587E+01   11.30     3.0738E+01   11.21
  Rigid Bodies ......... 1.1744E-01    0.04     1.1842E-01    0.04
  DEM .................. 1.8612E+01    6.88     1.8698E+01    6.82
    DEM self contact ... 1.8109E+01    6.69     1.8196E+01    6.64
  Time step size ....... 4.1317E+01   15.27     4.1492E+01   15.13
  Group force file ..... 4.2109E-02    0.02     5.3029E-02    0.02
  Others ............... 1.4487E+00    0.54     1.5048E+00    0.55
    Force Sharing ...... 1.1922E+00    0.44     1.1969E+00    0.44
  Misc. 1 .............. 2.0557E+01    7.60     2.0677E+01    7.54
    Scale Masses ....... 1.7210E-02    0.01     1.7380E-02    0.01
    Force Constraints .. 2.2482E-02    0.01     2.2557E-02    0.01
    Force to Accel ..... 1.7787E+00    0.66     1.7830E+00    0.65
    Constraint Sharing . 2.8136E-02    0.01     2.8288E-02    0.01
    Update RB nodes .... 2.7393E-02    0.01     2.8966E-02    0.01
  Misc. 2 .............. 3.9646E+00    1.46     3.9771E+00    1.45
  Misc. 3 .............. 6.4557E+00    2.39     6.5246E+00    2.38
  Misc. 4 .............. 1.1930E+00    0.44     1.2066E+00    0.44
    Timestep Init ...... 9.6249E-01    0.36     9.6129E-01    0.35
    Apply Loads ........ 1.7802E-01    0.07     1.8855E-01    0.07
  ----------------------------------------------------------------
  T o t a l s            2.7066E+02  100.00     2.7423E+02  100.00

 Problem time       =    6.0000E-05
 Problem cycle      =     53892
 Total CPU time     =       271 seconds (   0 hours  4 minutes 31 seconds)
 CPU time per zone cycle  =        431.308 nanoseconds
 Clock time per zone cycle=        436.637 nanoseconds

 Parallel execution with      4 MPP proc
 NLQ used/max                64/    64

  C P U   T i m i n g   i n f o r m a t i o n

  Processor   Hostname                              CPU/Avg_CPU  CPU(seconds)
  ---------------------------------------------------------------------------
  #       0   compute-0-0                               0.97977   2.6524E+02
  #       1   compute-0-0                               1.00647   2.7247E+02
  #       2   compute-0-0                               1.00644   2.7246E+02
  #       3   compute-0-0                               1.00732   2.7270E+02
  ---------------------------------------------------------------------------
  T o t a l s                                                     1.0829E+03


 Start time   04/08/2022 14:23:04  
 End time     04/08/2022 14:27:38  
 Elapsed time     274 seconds for   53892 cycles using     4 MPP procs
             (      0 hour   4 minutes 34 seconds)

 N o r m a l    t e r m i n a t i o n                          04/08/22 14:27:38
