      Date: 04/08/2022      Time: 14:23:04  

     ___________________________________________________
     |                                                 |
     |  Livermore Software Technology, LLC             |
     |                                                 |
     |  7374 Las Positas Road                          |
     |  Livermore, CA 94551                            |
     |  Tel: (925) 449-2500  Fax: (925) 449-2507       |
     |  www.lstc.com                                   |
     |_________________________________________________|
     |                                                 |
     |  LS-DYNA, A Program for Nonlinear Dynamic       |
     |  Analysis of Structures in Three Dimensions     |
     |  Version : mpp d R12.0.0   Date: 06/19/2020     |
     |  Revision: 148931          Time: 17:26:40       |
     |                                                 |
     |  Features enabled in this version:              |
     |    Distributed Memory Parallel                  |
     |    CESE CHEMISTRY EM ICFD STOCHASTIC_PARTICLES  |
     |    FFTW (multi-dimensional FFTW Library)        |
     |    ANSYS License (ANSYS202)                     |
     |    BigID  option                                |
     |                                                 |
     |  Licensed to: Norwegian University of Science an|
     |  Issued by  : Pascale.SaneGuttin_02092022       |
     |                                                 |
     |  Platform   : Intel-MPI 2018 Xeon64             |
     |  OS Level   : Linux CentOS 6.5 uom              |
     |  Compiler   : Intel Fortran Compiler 16.0 AVX-2 |
     |  Hostname   : compute-0-0                       |
     |  Precision  : Double precision (I8R8)           |
     |  SVN Version: 148978                            |
     |                                                 |
     |  Unauthorized use infringes LST copyrights      |
     |_________________________________________________|


 Input file: DynaOpt.key                                                                     

 The native file format       : 64-bit small endian
 Memory size from default     :   100000000,            0
 Binary file                  : 32 bit IEEE selected
 d3dump option                : d3dump will be suppressed
 Memory size from default     :   100000000,    100000000

 Memory for the head node
 Memory installed (MB)        :       257787
 Memory available (MB)        :       223982

 ********  notice  ********  notice  ********  notice  ********
 *                                                            *
 * This is the LS-DYNA Finite Element code.                   *
 *                                                            *
 * Neither LST nor the authors assume any responsibility for  *
 * the validity, accuracy, or applicability of any results    *
 * obtained from this system. Users must verify their own     *
 * results.                                                   *
 *                                                            *
 * LST endeavors to make the LS-DYNA code as complete,        *
 * accurate and easy to use as possible.                      *
 * Suggestions and comments are welcomed.  Please report any  *
 * errors encountered in either the documentation or results  *
 * immediately to LST through your site focus.                *
 *                                                            *
 * Copyright (C) 1990-2020                                    *
 * by Livermore Software Technology, LLC                      *
 * All rights reserved                                        *
 *                                                            *
 ********  notice  ********  notice  ********  notice  ********
 
LSTC Environment Variables:
 
LSTC_BINARY=32ieee
LSTC_LICENSE_SERVER=129.241.89.45
LSTC_D3DUMP=off
LSTC_LICENSE=network
 

 Beginning of keyword reader                                   04/08/22 14:23:04
 allocating  memory to   100000000 d     1995258 beginning of keyword reader
 expanding   memory to      273530 d     2167722  
 expanding   memory to      303530 d     2167722  
 expanding   memory to      363530 d     2167722  
 expanding   memory to      383682 d     2167722  
 expanding   memory to      449926 d     2167722  
 expanding   memory to      500266 d     2167722  
 expanding   memory to      521266 d     2167722  
 expanding   memory to      586266 d     2167722  
 expanding   memory to      615114 d     2167722  
 expanding   memory to      730506 d     2167722  
 expanding   memory to      751548 d     2167722  

                                                               04/08/22 14:23:04
 Open include file: mesh_ball_target.key

                                                               04/08/22 14:23:04
 Open include file: mesh_wall.key
 expanding   memory to      780373 d     2167722  
 expanding   memory to      800373 d     2167722  
 expanding   memory to      820373 d     2167722  

********** echo of pfile data **********


*********** end of pfile data **********
 expanding   memory to      851537 d     2167722  
 expanding   memory to      879281 d     2167722  
 expanding   memory to     1184465 d     2167722  
 expanding   memory to     1212209 d     2167722  
 expanding   memory to     1235379 d     2445762  
 expanding   memory to     1316474 d     2445762  
 expanding   memory to     1409154 d     2445762  
 expanding   memory to     1536589 d     2445762  
 expanding   memory to     1587503 d     2445762  
 expanding   memory to     1611983 d     2445762  
 
 *** Warning 10138 (KEY+138)
     *SET_NODE Set number 5 is empty at 6th input
 expanding   memory to     1635183 d     2496690  
 expanding   memory to     1657183 d     2496690  
 expanding   memory to     1679183 d     2496690  
 expanding   memory to     1701183 d     2496690  
 expanding   memory to     1723183 d     2496690  
 expanding   memory to     1745183 d     2496690  
 expanding   memory to     1767183 d     2496690  
 expanding   memory to     1789183 d     2496690  
 expanding   memory to     1811183 d     2496690  
 expanding   memory to     1833183 d     2496690  
 expanding   memory to     1855183 d     2496690  
 expanding   memory to     1877183 d     2496690  
 expanding   memory to     1899183 d     2496690  
 expanding   memory to     1921183 d     2496690  
 expanding   memory to     1959963 d     2496690  
 expanding   memory to     1987743 d     2496690  
 expanding   memory to     2290904 d     2496690  

 Memory required to process keyword     :    2290904  
 Additional dynamic memory required     :    2584782  

 allocating  memory to   100000000 d     1821194 end of keyword reader

 MPP execution with       4 procs

 LS-DYNA will perform a structural only analysis 


 Initial reading of file                                       04/08/22 14:23:05
 LS-DYNA keyword deck by LS-PrePost                                      
                         ls-dyna mpp.148931 d           date 06/19/2020
 expanding   memory to        4305 d     1579236 material, node and element data
 expanding   memory to        4399 d     1579255 mat add general damage 0
 expanding   memory to        4459 d     1579255 material added airbag porosity leakage 
 expanding   memory to        4477 d     1579255 material properties
 expanding   memory to        4495 d     1747066 element data for composite material
 expanding   memory to        4510 d     3009147 gradient of damage data
 expanding   memory to        4676 d     3009156 user control for contact interfaces
 contracting memory to        4662 d     3009156 thermal expansion 0
 expanding   memory to        4668 d     3009156 state of charge expansion 0
 expanding   memory to        4670 d     3009156 cross-sectional force definitions 0
 expanding   memory to       43999 d     3009192 temp index array for node sorting
 contracting memory to        4670 d     3048525 just because?
 expanding   memory to       16255 d     3127201 arbitrary element numbering input
 contracting memory to        4690 d     3809542 spc cards
 contracting memory to        4677 d     3850545 process element material data
 expanding   memory to        6678 d     3850539 load curve data
 contracting memory to        4684 d     3850539 user_define_loading_set
 expanding   memory to        4884 d     3850539 regularize time history data
 contracting memory to        4688 d     3850539 *DEFINE_ELEMENT_DEATH
 expanding   memory to        4937 d     3932407 contact interfaces
 expanding   memory to       84595 d     3932407 implicit contact 1
 expanding   memory to      177151 d     3932407 implicit contact 2
 contracting memory to        4937 d     4071461 before call to elgen
 expanding   memory to        5937 d     4457645 contact segment data 1
 expanding   memory to      216604 d     4768128 contact segment data 3
 contracting memory to        4937 d     4599488 contact definition
 expanding   memory to        4991 d     4599489 rigid body
 expanding   memory to        4995 d     4600134 contact friction
 expanding   memory to        5085 d     4600134 joints
 expanding   memory to        7145 d     4600134 de sld2des
 expanding   memory to        7185 d     4669644 discrete elements regions
 expanding   memory to        7285 d     4670244 rigid bodies for disp. termination
 expanding   memory to        7291 d     8249534 mat add cohesive 0
 expanding   memory to        7297 d     8249534 flexible body 2

 Performing Decomposition -- Phase 1                           04/08/22 14:23:05
 expanding   memory to      164340 d     5349813 decomp scratch 1
 expanding   memory to      296350 d     5349813 decomp reverse connectivity
 expanding   memory to      416861 d     5349814 element ownership

Decomposition region 1:

   Part list

Decomposition region 2:

   Everything

Region  1 is distributed to 4 processors

   With no coordinate transformation

Region  2 is distributed to 4 processors

   With no coordinate transformation

Normalized element costs assigned during decomposition:
            Minumum: 9.998795E-01
            Maximum: 1.000079E+00
 Standard Deviation: 7.353250E-05

 contracting memory to      358850 d     5389147 constraint scratch
 contracting memory to      324182 d     5428476 con segment decomp rewrite 2
 expanding   memory to      358851 d     5428476 shadow node processing
 expanding   memory to      398185 d     5389147 share node processing
 contracting memory to      306119 d     5349822 nodal sharing list

 Memory required for decomposition      :     416861  
 Additional dynamic memory required     :    8645612  

 allocating  memory to   100000000 d     5245547 Allocate memory top of decomps
 expanding   memory to       11586 d     5245547 hex ownership chunk
 contracting memory to           7 d     5239762 material sort chunk
 expanding   memory to          19 d     5239762 material uid
 expanding   memory to          24 d     5252545 nodal force sharing lists 1

 Performing Decomposition -- Phase 2                           04/08/22 14:23:05
 expanding   memory to          30 d     5235645 mat scratch
 expanding   memory to          31 d     6303745 tied nodes scratch
 expanding   memory to          34 d     6303745 tied node scratch
 contracting memory to          30 d     6303745 nodal rigid body scratch
 expanding   memory to        1310 d     6303745 DES sld2des scratch
 expanding   memory to       19488 d     6303745 DES sld2des scratch
 contracting memory to        2462 d     6303745 DES sld2des scratch
 contracting memory to          30 d     6303745 spring/damper scratch
 contracting memory to           1 d     5294601 Performing Decomposition -- Phase 3
 Performing Decomposition -- Phase 3                           04/08/22 14:23:06
 LS-DYNA keyword deck by LS-PrePost                                      
                         ls-dyna mpp.148931 d           date 06/19/2020
 expanding   memory to        4305 d     5294601 material, node and element data
 expanding   memory to        4399 d     5294620 mat add general damage 0
 expanding   memory to        4459 d     5294620 material added airbag porosity leakage 
 expanding   memory to        4477 d     5294620 material properties
 expanding   memory to        4495 d     5334232 element data for composite material
 expanding   memory to        4510 d     5659457 gradient of damage data
 expanding   memory to       17608 d     5702965 user control for contact interfaces
 contracting memory to       17594 d     5702965 thermal expansion 0
 expanding   memory to       17600 d     5702965 state of charge expansion 0
 expanding   memory to       17602 d     5702965 cross-sectional force definitions 0
 expanding   memory to       27172 d     5703001 temp index array for node sorting
 contracting memory to       17602 d     5703001 just because?
 expanding   memory to       20502 d     5722159 arbitrary element numbering input
 contracting memory to       17622 d    30317170 spc cards
 contracting memory to       17609 d    30317170 d3thdt storage
 expanding   memory to       17610 d    30405761 process element material data
 expanding   memory to       19611 d    30405755 load curve data
 contracting memory to       17617 d    30405755 user_define_loading_set
 expanding   memory to       17817 d    30405755 regularize time history data
 contracting memory to       17621 d    30405755 *DEFINE_ELEMENT_DEATH
 expanding   memory to       17677 d    30424896 MPP copy of tim vector
 expanding   memory to       17926 d    30388408 contact interfaces
 expanding   memory to       38066 d    30388408 implicit contact 1
 expanding   memory to       61248 d    30388408 implicit contact 2
 contracting memory to       18926 d    30666011 contact segment data 1
 expanding   memory to       70836 d    30929207 contact segment data 3
 expanding   memory to      163516 d    30798425 read contacts, eroding check
 expanding   memory to      253543 d    30798425 eroding neighbors 2
 expanding   memory to      273844 d    30798425 eroding neighbors
 contracting memory to      111438 d    31231278 contact definition
 expanding   memory to      111444 d    31424999 contact history
 expanding   memory to      111498 d    31504938 rigid body
 expanding   memory to      111516 d    31504938 rbe2 scratch
 contracting memory to      111502 d    31567821 contact friction
 expanding   memory to      111592 d    31567827 joints
 expanding   memory to      113652 d    31567827 de sld2des
 expanding   memory to      113692 d    31576527 discrete elements regions
 expanding   memory to      113792 d    31794279 rigid bodies for disp. termination
 expanding   memory to      114170 d    31794279 save d3plot control data
 
 *** Warning 40859 (SOL+859)
     Cannot find elements of slave segment of interface 2
 deleted segment ID          n1          n2          n3          n4
       1 310000 310000 310000 310000
       2 310001 310001 310001 310001
       3 310002 310002 310002 310002
       4 310003 310003 310003 310003
       5 310004 310004 310004 310004
       6 310005 310005 310005 310005
       7 310006 310006 310006 310006
       8 310007 310007 310007 310007
       9 310008 310008 310008 310008
       10 310009 310009 310009 310009
       11 310010 310010 310010 310010
       12 310011 310011 310011 310011
       13 310012 310012 310012 310012
       14 310013 310013 310013 310013
       15 310014 310014 310014 310014
       16 310015 310015 310015 310015
       17 310016 310016 310016 310016
       18 310017 310017 310017 310017
       19 310018 310018 310018 310018
       20 310019 310019 310019 310019
       21 310020 310020 310020 310020
       22 310021 310021 310021 310021
       23 310022 310022 310022 310022
       24 310023 310023 310023 310023
       25 310024 310024 310024 310024
       26 310025 310025 310025 310025
       27 310026 310026 310026 310026
       28 310027 310027 310027 310027
       29 310028 310028 310028 310028
       30 310029 310029 310029 310029
       31 310030 310030 310030 310030
       32 310031 310031 310031 310031
       33 310032 310032 310032 310032
       34 310033 310033 310033 310033
       35 310034 310034 310034 310034
       36 310035 310035 310035 310035
       37 310036 310036 310036 310036
       38 310037 310037 310037 310037
       39 310038 310038 310038 310038
       40 310039 310039 310039 310039
       41 310040 310040 310040 310040
       42 310041 310041 310041 310041
       43 310042 310042 310042 310042
       44 310043 310043 310043 310043
       45 310044 310044 310044 310044
       46 310045 310045 310045 310045
       47 310046 310046 310046 310046
       48 310047 310047 310047 310047
       49 310048 310048 310048 310048
       50 310049 310049 310049 310049
       51 310050 310050 310050 310050
       52 310051 310051 310051 310051
       53 310052 310052 310052 310052
       54 310053 310053 310053 310053
       55 310054 310054 310054 310054
       56 310055 310055 310055 310055
       57 310056 310056 310056 310056
       58 310057 310057 310057 310057
       59 310058 310058 310058 310058
       60 310059 310059 310059 310059
       61 310060 310060 310060 310060
       62 310061 310061 310061 310061
       63 310062 310062 310062 310062
       64 310063 310063 310063 310063
       65 310064 310064 310064 310064
       66 310065 310065 310065 310065
       67 310066 310066 310066 310066
       68 310067 310067 310067 310067
       69 310068 310068 310068 310068
       70 310069 310069 310069 310069
       71 310070 310070 310070 310070
       72 310071 310071 310071 310071
       73 310072 310072 310072 310072
       74 310073 310073 310073 310073
       75 310074 310074 310074 310074
       76 310075 310075 310075 310075
       77 310076 310076 310076 310076
       78 310077 310077 310077 310077
       79 310078 310078 310078 310078
       80 310079 310079 310079 310079
       81 310080 310080 310080 310080
       82 310081 310081 310081 310081
       83 310082 310082 310082 310082
       84 310083 310083 310083 310083
       85 310084 310084 310084 310084
       86 310085 310085 310085 310085
       87 310086 310086 310086 310086
       88 310087 310087 310087 310087
       89 310088 310088 310088 310088
       90 310089 310089 310089 310089
       91 310090 310090 310090 310090
       92 310091 310091 310091 310091
       93 310092 310092 310092 310092
       94 310093 310093 310093 310093
       95 310094 310094 310094 310094
       96 310095 310095 310095 310095
       97 310096 310096 310096 310096
       98 310097 310097 310097 310097
       99 310098 310098 310098 310098
       100 310099 310099 310099 310099
       101 310100 310100 310100 310100
       102 310101 310101 310101 310101
       103 310102 310102 310102 310102
       104 310103 310103 310103 310103
       105 310104 310104 310104 310104
       106 310105 310105 310105 310105
       107 310106 310106 310106 310106
       108 310107 310107 310107 310107
       109 310108 310108 310108 310108
       110 310109 310109 310109 310109
       111 310110 310110 310110 310110
       112 310111 310111 310111 310111
       113 310112 310112 310112 310112
       114 310113 310113 310113 310113
       115 310114 310114 310114 310114
       116 310115 310115 310115 310115
       117 310116 310116 310116 310116
       118 310117 310117 310117 310117
       119 310118 310118 310118 310118
       120 310119 310119 310119 310119
       121 310120 310120 310120 310120
       122 310121 310121 310121 310121
       123 310122 310122 310122 310122
       124 310123 310123 310123 310123
       125 310124 310124 310124 310124
       126 310125 310125 310125 310125
       127 310126 310126 310126 310126
       128 310127 310127 310127 310127
       129 310128 310128 310128 310128
       130 310129 310129 310129 310129
       131 310130 310130 310130 310130
       132 310131 310131 310131 310131
       133 310132 310132 310132 310132
       134 310133 310133 310133 310133
       135 310134 310134 310134 310134
       136 310135 310135 310135 310135
       137 310136 310136 310136 310136
       138 310137 310137 310137 310137
       139 310138 310138 310138 310138
       140 310139 310139 310139 310139
       141 310140 310140 310140 310140
       142 310141 310141 310141 310141
       143 310142 310142 310142 310142
       144 310143 310143 310143 310143
       145 310144 310144 310144 310144
       146 310145 310145 310145 310145
       147 310146 310146 310146 310146
       148 310147 310147 310147 310147
       149 310148 310148 310148 310148
       150 310149 310149 310149 310149
       151 310150 310150 310150 310150
       152 310151 310151 310151 310151
       153 310152 310152 310152 310152
       154 310153 310153 310153 310153
       155 310154 310154 310154 310154
       156 310155 310155 310155 310155
       157 310156 310156 310156 310156
       158 310157 310157 310157 310157
       159 310158 310158 310158 310158
       160 310159 310159 310159 310159
       161 310160 310160 310160 310160
       162 310161 310161 310161 310161
       163 310162 310162 310162 310162
       164 310163 310163 310163 310163
       165 310164 310164 310164 310164
       166 310165 310165 310165 310165
       167 310166 310166 310166 310166
       168 310167 310167 310167 310167
       169 310168 310168 310168 310168
       170 310169 310169 310169 310169
       171 310170 310170 310170 310170
       172 310171 310171 310171 310171
       173 310172 310172 310172 310172
       174 310173 310173 310173 310173
       175 310174 310174 310174 310174
       176 310175 310175 310175 310175
       177 310176 310176 310176 310176
       178 310177 310177 310177 310177
       179 310178 310178 310178 310178
       180 310179 310179 310179 310179
       181 310180 310180 310180 310180
       182 310181 310181 310181 310181
       183 310182 310182 310182 310182
       184 310183 310183 310183 310183
       185 310184 310184 310184 310184
       186 310185 310185 310185 310185
       187 310186 310186 310186 310186
       188 310187 310187 310187 310187
       189 310188 310188 310188 310188
       190 310189 310189 310189 310189
       191 310190 310190 310190 310190
       192 310191 310191 310191 310191
       193 310192 310192 310192 310192
       194 310193 310193 310193 310193
       195 310194 310194 310194 310194
       196 310195 310195 310195 310195
       197 310196 310196 310196 310196
       198 310197 310197 310197 310197
       199 310198 310198 310198 310198
       200 310199 310199 310199 310199
       201 310200 310200 310200 310200
       202 310201 310201 310201 310201
       203 310202 310202 310202 310202
       204 310203 310203 310203 310203
       205 310204 310204 310204 310204
       206 310205 310205 310205 310205
       207 310206 310206 310206 310206
       208 310207 310207 310207 310207
       209 310208 310208 310208 310208
       210 310209 310209 310209 310209
       211 310210 310210 310210 310210
       212 310211 310211 310211 310211
       213 310212 310212 310212 310212
       214 310213 310213 310213 310213
       215 310214 310214 310214 310214
       216 310215 310215 310215 310215
       217 310216 310216 310216 310216
       218 310217 310217 310217 310217
       219 310218 310218 310218 310218
       220 310219 310219 310219 310219
       221 310220 310220 310220 310220
       222 310221 310221 310221 310221
       223 310222 310222 310222 310222
       224 310223 310223 310223 310223
       225 310224 310224 310224 310224
       226 310225 310225 310225 310225
       227 310226 310226 310226 310226
       228 310227 310227 310227 310227
       229 310228 310228 310228 310228
       230 310229 310229 310229 310229
       231 310230 310230 310230 310230
       232 310231 310231 310231 310231
       233 310232 310232 310232 310232
       234 310233 310233 310233 310233
       235 310234 310234 310234 310234
       236 310235 310235 310235 310235
       237 310236 310236 310236 310236
       238 310237 310237 310237 310237
       239 310238 310238 310238 310238
       240 310239 310239 310239 310239
       241 310240 310240 310240 310240
       242 310241 310241 310241 310241
       243 310242 310242 310242 310242
       244 310243 310243 310243 310243
       245 310244 310244 310244 310244
       246 310245 310245 310245 310245
       247 310246 310246 310246 310246
       248 310247 310247 310247 310247
       249 310248 310248 310248 310248
       250 310249 310249 310249 310249
       251 310250 310250 310250 310250
       252 310251 310251 310251 310251
       253 310252 310252 310252 310252
       254 310253 310253 310253 310253
       255 310254 310254 310254 310254
       256 310255 310255 310255 310255
       257 310256 310256 310256 310256
       258 310257 310257 310257 310257
       259 310258 310258 310258 310258
       260 310259 310259 310259 310259
       261 310260 310260 310260 310260
       262 310261 310261 310261 310261
       263 310262 310262 310262 310262
       264 310263 310263 310263 310263
       265 310264 310264 310264 310264
       266 310265 310265 310265 310265
       267 310266 310266 310266 310266
       268 310267 310267 310267 310267
       269 310268 310268 310268 310268
       270 310269 310269 310269 310269
       271 310270 310270 310270 310270
       272 310271 310271 310271 310271
       273 310272 310272 310272 310272
       274 310273 310273 310273 310273
       275 310274 310274 310274 310274
       276 310275 310275 310275 310275
       277 310276 310276 310276 310276
       278 310277 310277 310277 310277
       279 310278 310278 310278 310278
       280 310279 310279 310279 310279
       281 310280 310280 310280 310280
       282 310281 310281 310281 310281
       283 310282 310282 310282 310282
       284 310283 310283 310283 310283
       285 310284 310284 310284 310284
       286 310285 310285 310285 310285
       287 310286 310286 310286 310286
       288 310287 310287 310287 310287
       289 310288 310288 310288 310288
       290 310289 310289 310289 310289
       291 310290 310290 310290 310290
       292 310291 310291 310291 310291
       293 310292 310292 310292 310292
       294 310293 310293 310293 310293
       295 310294 310294 310294 310294
       296 310295 310295 310295 310295
       297 310296 310296 310296 310296
       298 310297 310297 310297 310297
       299 310298 310298 310298 310298
       300 310299 310299 310299 310299
       301 310300 310300 310300 310300
       302 310301 310301 310301 310301
       303 310302 310302 310302 310302
       304 310303 310303 310303 310303
       305 310304 310304 310304 310304
       306 310305 310305 310305 310305
       307 310306 310306 310306 310306
       308 310307 310307 310307 310307
       309 310308 310308 310308 310308
       310 310309 310309 310309 310309
       311 310310 310310 310310 310310
       312 310311 310311 310311 310311
       313 310312 310312 310312 310312
       314 310313 310313 310313 310313
       315 310314 310314 310314 310314
       316 310315 310315 310315 310315
       317 310316 310316 310316 310316
       318 310317 310317 310317 310317
       319 310318 310318 310318 310318
       320 310319 310319 310319 310319
       321 310320 310320 310320 310320
       322 310321 310321 310321 310321
       323 310322 310322 310322 310322
       324 310323 310323 310323 310323
       325 310324 310324 310324 310324
       326 310325 310325 310325 310325
       327 310326 310326 310326 310326
       328 310327 310327 310327 310327
       329 310328 310328 310328 310328
       330 310329 310329 310329 310329
       331 310330 310330 310330 310330
       332 310331 310331 310331 310331
       333 310332 310332 310332 310332
       334 310333 310333 310333 310333
       335 310334 310334 310334 310334
       336 310335 310335 310335 310335
       337 310336 310336 310336 310336
       338 310337 310337 310337 310337
       339 310338 310338 310338 310338
       340 310339 310339 310339 310339
       341 310340 310340 310340 310340
       342 310341 310341 310341 310341
       343 310342 310342 310342 310342
       344 310343 310343 310343 310343
       345 310344 310344 310344 310344
       346 310345 310345 310345 310345
       347 310346 310346 310346 310346
       348 310347 310347 310347 310347
       349 310348 310348 310348 310348
       350 310349 310349 310349 310349
       351 310350 310350 310350 310350
       352 310351 310351 310351 310351
       353 310352 310352 310352 310352
       354 310353 310353 310353 310353
       355 310354 310354 310354 310354
       356 310355 310355 310355 310355
       357 310356 310356 310356 310356
       358 310357 310357 310357 310357
       359 310358 310358 310358 310358
       360 310359 310359 310359 310359
       361 310360 310360 310360 310360
       362 310361 310361 310361 310361
       363 310362 310362 310362 310362
       364 310363 310363 310363 310363
       365 310364 310364 310364 310364
       366 310365 310365 310365 310365
       367 310366 310366 310366 310366
       368 310367 310367 310367 310367
       369 310368 310368 310368 310368
       370 310369 310369 310369 310369
       371 310370 310370 310370 310370
       372 310371 310371 310371 310371
       373 310372 310372 310372 310372
       374 310373 310373 310373 310373
       375 310374 310374 310374 310374
       376 310375 310375 310375 310375
       377 310376 310376 310376 310376
       378 310377 310377 310377 310377
       379 310378 310378 310378 310378
       380 310379 310379 310379 310379
       381 310380 310380 310380 310380
       382 310381 310381 310381 310381
       383 310382 310382 310382 310382
       384 310383 310383 310383 310383
       385 310384 310384 310384 310384
       386 310385 310385 310385 310385
       387 310386 310386 310386 310386
       388 310387 310387 310387 310387
       389 310388 310388 310388 310388
       390 310389 310389 310389 310389
       391 310390 310390 310390 310390
       392 310391 310391 310391 310391
       393 310392 310392 310392 310392
       394 310393 310393 310393 310393
       395 310394 310394 310394 310394
       396 310395 310395 310395 310395
       397 310396 310396 310396 310396
       398 310397 310397 310397 310397
       399 310398 310398 310398 310398
       400 310399 310399 310399 310399
       401 310400 310400 310400 310400
       402 310401 310401 310401 310401
       403 310402 310402 310402 310402
       404 310403 310403 310403 310403
       405 310404 310404 310404 310404
       406 310405 310405 310405 310405
       407 310406 310406 310406 310406
       408 310407 310407 310407 310407
       409 310408 310408 310408 310408
       410 310409 310409 310409 310409
       411 310410 310410 310410 310410
       412 310411 310411 310411 310411
       413 310412 310412 310412 310412
       414 310413 310413 310413 310413
       415 310414 310414 310414 310414
       416 310415 310415 310415 310415
       417 310416 310416 310416 310416
       418 310417 310417 310417 310417
       419 310418 310418 310418 310418
       420 310419 310419 310419 310419
       421 310420 310420 310420 310420
       422 310421 310421 310421 310421
       423 310422 310422 310422 310422
       424 310423 310423 310423 310423
       425 310424 310424 310424 310424
       426 310425 310425 310425 310425
       427 310426 310426 310426 310426
       428 310427 310427 310427 310427
       429 310428 310428 310428 310428
       430 310429 310429 310429 310429
       431 310430 310430 310430 310430
       432 310431 310431 310431 310431
       433 310432 310432 310432 310432
       434 310433 310433 310433 310433
       435 310434 310434 310434 310434
       436 310435 310435 310435 310435
       437 310436 310436 310436 310436
       438 310437 310437 310437 310437
       439 310438 310438 310438 310438
       440 310439 310439 310439 310439
       441 310440 310440 310440 310440
       442 310441 310441 310441 310441
       443 310442 310442 310442 310442
       444 310443 310443 310443 310443
       445 310444 310444 310444 310444
       446 310445 310445 310445 310445
       447 310446 310446 310446 310446
       448 310447 310447 310447 310447
       449 310448 310448 310448 310448
       450 310449 310449 310449 310449
       451 310450 310450 310450 310450
       452 310451 310451 310451 310451
       453 310452 310452 310452 310452
       454 310453 310453 310453 310453
       455 310454 310454 310454 310454
       456 310455 310455 310455 310455
       457 310456 310456 310456 310456
       458 310457 310457 310457 310457
       459 310458 310458 310458 310458
       460 310459 310459 310459 310459
       461 310460 310460 310460 310460
       462 310461 310461 310461 310461
       463 310462 310462 310462 310462
       464 310463 310463 310463 310463
       465 310464 310464 310464 310464
       466 310465 310465 310465 310465
       467 310466 310466 310466 310466
       468 310467 310467 310467 310467
       469 310468 310468 310468 310468
       470 310469 310469 310469 310469
       471 310470 310470 310470 310470
       472 310471 310471 310471 310471
       473 310472 310472 310472 310472
       474 310473 310473 310473 310473
       475 310474 310474 310474 310474
       476 310475 310475 310475 310475
       477 310476 310476 310476 310476
       478 310477 310477 310477 310477
       479 310478 310478 310478 310478
       480 310479 310479 310479 310479
       481 310480 310480 310480 310480
       482 310481 310481 310481 310481
       483 310482 310482 310482 310482
       484 310483 310483 310483 310483
       485 310484 310484 310484 310484
       486 310485 310485 310485 310485
       487 310486 310486 310486 310486
       488 310487 310487 310487 310487
       489 310488 310488 310488 310488
       490 310489 310489 310489 310489
       491 310490 310490 310490 310490
       492 310491 310491 310491 310491
       493 310492 310492 310492 310492
       494 310493 310493 310493 310493
       495 310494 310494 310494 310494
       496 310495 310495 310495 310495
       497 310496 310496 310496 310496
       498 310497 310497 310497 310497
       499 310498 310498 310498 310498
       500 310499 310499 310499 310499
       501 310500 310500 310500 310500
       502 310501 310501 310501 310501
       503 310502 310502 310502 310502
       504 310503 310503 310503 310503
       505 310504 310504 310504 310504
       506 310505 310505 310505 310505
       507 310506 310506 310506 310506
       508 310507 310507 310507 310507
       509 310508 310508 310508 310508
       510 310509 310509 310509 310509
       511 310510 310510 310510 310510
       512 310511 310511 310511 310511
       513 310512 310512 310512 310512
       514 310513 310513 310513 310513
       515 310514 310514 310514 310514
       516 310515 310515 310515 310515
       517 310516 310516 310516 310516
       518 310517 310517 310517 310517
       519 310518 310518 310518 310518
       520 310519 310519 310519 310519
       521 310520 310520 310520 310520
       522 310521 310521 310521 310521
       523 310522 310522 310522 310522
       524 310523 310523 310523 310523
       525 310524 310524 310524 310524
       526 310525 310525 310525 310525
       527 310526 310526 310526 310526
       528 310527 310527 310527 310527
       529 310528 310528 310528 310528
       530 310529 310529 310529 310529
       531 310530 310530 310530 310530
       532 310531 310531 310531 310531
       533 310532 310532 310532 310532
       534 310533 310533 310533 310533
       535 310534 310534 310534 310534
       536 310535 310535 310535 310535
       537 310536 310536 310536 310536
       538 310537 310537 310537 310537
       539 310538 310538 310538 310538
       540 310539 310539 310539 310539
       541 310540 310540 310540 310540
       542 310541 310541 310541 310541
       543 310542 310542 310542 310542
       544 310543 310543 310543 310543
       545 310544 310544 310544 310544
       546 310545 310545 310545 310545
       547 310546 310546 310546 310546
       548 310547 310547 310547 310547
       549 310548 310548 310548 310548
       550 310549 310549 310549 310549
       551 310550 310550 310550 310550
       552 310551 310551 310551 310551
       553 310552 310552 310552 310552
       554 310553 310553 310553 310553
       555 310554 310554 310554 310554
       556 310555 310555 310555 310555
       557 310556 310556 310556 310556
       558 310557 310557 310557 310557
       559 310558 310558 310558 310558
       560 310559 310559 310559 310559
       561 310560 310560 310560 310560
       562 310561 310561 310561 310561
       563 310562 310562 310562 310562
       564 310563 310563 310563 310563
       565 310564 310564 310564 310564
       566 310565 310565 310565 310565
       567 310566 310566 310566 310566
       568 310567 310567 310567 310567
       569 310568 310568 310568 310568
       570 310569 310569 310569 310569
       571 310570 310570 310570 310570
       572 310571 310571 310571 310571
       573 310572 310572 310572 310572
       574 310573 310573 310573 310573
       575 310574 310574 310574 310574
       576 310575 310575 310575 310575
       577 310576 310576 310576 310576
       578 310577 310577 310577 310577
       579 310578 310578 310578 310578
       580 310579 310579 310579 310579
       581 310580 310580 310580 310580
       582 310581 310581 310581 310581
       583 310582 310582 310582 310582
       584 310583 310583 310583 310583
       585 310584 310584 310584 310584
       586 310585 310585 310585 310585
       587 310586 310586 310586 310586
       588 310587 310587 310587 310587
       589 310588 310588 310588 310588
       590 310589 310589 310589 310589
       591 310590 310590 310590 310590
       592 310591 310591 310591 310591
       593 310592 310592 310592 310592
       594 310593 310593 310593 310593
       595 310594 310594 310594 310594
       596 310595 310595 310595 310595
       597 310596 310596 310596 310596
       598 310597 310597 310597 310597
       599 310598 310598 310598 310598
       600 310599 310599 310599 310599
       601 310600 310600 310600 310600
       602 310601 310601 310601 310601
       603 310602 310602 310602 310602
       604 310603 310603 310603 310603
       605 310604 310604 310604 310604
       606 310605 310605 310605 310605
       607 310606 310606 310606 310606
       608 310607 310607 310607 310607
       609 310608 310608 310608 310608
       610 310609 310609 310609 310609
       611 310610 310610 310610 310610
       612 310611 310611 310611 310611
       613 310612 310612 310612 310612
       614 310613 310613 310613 310613
       615 310614 310614 310614 310614
       616 310615 310615 310615 310615
       617 310616 310616 310616 310616
       618 310617 310617 310617 310617
       619 310618 310618 310618 310618
       620 310619 310619 310619 310619
       621 310620 310620 310620 310620
       622 310621 310621 310621 310621
       623 310622 310622 310622 310622
       624 310623 310623 310623 310623
       625 310624 310624 310624 310624
       626 310625 310625 310625 310625
       627 310626 310626 310626 310626
       628 310627 310627 310627 310627
       629 310628 310628 310628 310628
       630 310629 310629 310629 310629
       631 310630 310630 310630 310630
       632 310631 310631 310631 310631
       633 310632 310632 310632 310632
       634 310633 310633 310633 310633
       635 310634 310634 310634 310634
       636 310635 310635 310635 310635
       637 310636 310636 310636 310636
       638 310637 310637 310637 310637
       639 310638 310638 310638 310638
       640 310639 310639 310639 310639
       641 310647 310647 310647 310647
       642 310658 310658 310658 310658
       643 310674 310674 310674 310674
       644 310676 310676 310676 310676
       645 310687 310687 310687 310687
       646 310691 310691 310691 310691
       647 310702 310702 310702 310702
       648 310718 310718 310718 310718
       649 310720 310720 310720 310720
       650 310728 310728 310728 310728
       651 310739 310739 310739 310739
       652 310754 310754 310754 310754
       653 310764 310764 310764 310764
       654 310775 310775 310775 310775
       655 310790 310790 310790 310790
       656 310804 310804 310804 310804
       657 310815 310815 310815 310815
       658 310831 310831 310831 310831
       659 310843 310843 310843 310843
       660 310854 310854 310854 310854
       661 310870 310870 310870 310870
       662 310881 310881 310881 310881
       663 310892 310892 310892 310892
       664 310908 310908 310908 310908
       665 310918 310918 310918 310918
       666 310929 310929 310929 310929
       667 310945 310945 310945 310945
       668 310955 310955 310955 310955
       669 310966 310966 310966 310966
       670 310982 310982 310982 310982
       671 310994 310994 310994 310994
       672 311004 311004 311004 311004
       673 311020 311020 311020 311020
       674 311030 311030 311030 311030
       675 311041 311041 311041 311041
       676 311057 311057 311057 311057
       677 311068 311068 311068 311068
       678 311079 311079 311079 311079
       679 311095 311095 311095 311095
       680 311104 311104 311104 311104
       681 311115 311115 311115 311115
       682 311131 311131 311131 311131
       683 311141 311141 311141 311141
       684 311152 311152 311152 311152
       685 311168 311168 311168 311168
       686 311192 311192 311192 311192
       687 311208 311208 311208 311208
       688 311220 311220 311220 311220
       689 311231 311231 311231 311231
       690 311247 311247 311247 311247
       691 311261 311261 311261 311261
       692 311272 311272 311272 311272
       693 311288 311288 311288 311288
       694 311293 311293 311293 311293
       695 311297 311297 311297 311297
       696 311303 311303 311303 311303
       697 311329 311329 311329 311329
       698 311332 311332 311332 311332
       699 311333 311333 311333 311333
       700 311342 311342 311342 311342
       701 311367 311367 311367 311367
       702 311372 311372 311372 311372
       703 311378 311378 311378 311378
       704 311403 311403 311403 311403
       705 311416 311416 311416 311416
       706 311442 311442 311442 311442
       707 311445 311445 311445 311445
       708 311453 311453 311453 311453
       709 311463 311463 311463 311463
       710 311480 311480 311480 311480
       711 311484 311484 311484 311484
       712 311518 311518 311518 311518
       713 311523 311523 311523 311523
       714 311557 311557 311557 311557
       715 311561 311561 311561 311561
       716 311580 311580 311580 311580
       717 311596 311596 311596 311596
       718 311636 311636 311636 311636
       719 311675 311675 311675 311675
       720 311712 311712 311712 311712
       721 311753 311753 311753 311753
       722 311790 311790 311790 311790
       723 311826 311826 311826 311826
       724 311845 311845 311845 311845
       725 311865 311865 311865 311865
       726 311905 311905 311905 311905
       727 311942 311942 311942 311942
       728 311980 311980 311980 311980
       729 312019 312019 312019 312019
       730 312056 312056 312056 312056
       731 312093 312093 312093 312093
       732 312133 312133 312133 312133
       733 312169 312169 312169 312169
       734 312173 312173 312173 312173
       735 312206 312206 312206 312206
       736 312209 312209 312209 312209
       737 312243 312243 312243 312243
       738 312279 312279 312279 312279
       739 312315 312315 312315 312315
       740 312319 312319 312319 312319
       741 312352 312352 312352 312352
       742 312361 312361 312361 312361
       743 312387 312387 312387 312387
       744 312390 312390 312390 312390
       745 312400 312400 312400 312400
       746 312426 312426 312426 312426
       747 312439 312439 312439 312439
       748 312464 312464 312464 312464
       749 312477 312477 312477 312477
       750 312503 312503 312503 312503
       751 312514 312514 312514 312514
       752 312540 312540 312540 312540
       753 312553 312553 312553 312553
       754 312559 312559 312559 312559
       755 312579 312579 312579 312579
       756 312589 312589 312589 312589
       757 312615 312615 312615 312615
       758 312628 312628 312628 312628
       759 312654 312654 312654 312654
       760 312663 312663 312663 312663
       761 312689 312689 312689 312689
       762 312698 312698 312698 312698
       763 312724 312724 312724 312724
       764 312735 312735 312735 312735
       765 312761 312761 312761 312761
       766 312765 312765 312765 312765
       767 312772 312772 312772 312772
       768 312797 312797 312797 312797
       769 312801 312801 312801 312801
       770 312808 312808 312808 312808
       771 312834 312834 312834 312834
       772 312839 312839 312839 312839
       773 312840 312840 312840 312840
       774 312872 312872 312872 312872
       775 312875 312875 312875 312875
       776 312882 312882 312882 312882
       777 312908 312908 312908 312908
       778 312912 312912 312912 312912
       779 312913 312913 312913 312913
       780 312914 312914 312914 312914
       781 312921 312921 312921 312921
       782 312947 312947 312947 312947
       783 312953 312953 312953 312953
       784 312961 312961 312961 312961
       785 312987 312987 312987 312987
       786 312993 312993 312993 312993
       787 312998 312998 312998 312998
       788 313024 313024 313024 313024
       789 313038 313038 313038 313038
       790 313064 313064 313064 313064
       791 313078 313078 313078 313078
       792 313104 313104 313104 313104
       793 313108 313108 313108 313108
       794 313116 313116 313116 313116
       795 313141 313141 313141 313141
       796 313144 313144 313144 313144
       797 313154 313154 313154 313154
       798 313180 313180 313180 313180
       799 313183 313183 313183 313183
       800 313192 313192 313192 313192
       801 313218 313218 313218 313218
       802 313221 313221 313221 313221
       803 313228 313228 313228 313228
       804 313253 313253 313253 313253
       805 313263 313263 313263 313263
       806 313285 313285 313285 313285
       807 313289 313289 313289 313289
       808 313292 313292 313292 313292
       809 313300 313300 313300 313300
       810 313322 313322 313322 313322
       811 313326 313326 313326 313326
       812 313336 313336 313336 313336
       813 313358 313358 313358 313358
       814 313362 313362 313362 313362
       815 313365 313365 313365 313365
       816 313374 313374 313374 313374
       817 313396 313396 313396 313396
       818 313400 313400 313400 313400
       819 313411 313411 313411 313411
       820 313421 313421 313421 313421
       821 313433 313433 313433 313433
       822 313437 313437 313437 313437
       823 313441 313441 313441 313441
       824 313454 313454 313454 313454
       825 313475 313475 313475 313475
       826 313479 313479 313479 313479
       827 313493 313493 313493 313493
       828 313514 313514 313514 313514
       829 313518 313518 313518 313518
       830 313530 313530 313530 313530
       831 313549 313549 313549 313549
       832 313553 313553 313553 313553
       833 313558 313558 313558 313558
       834 313566 313566 313566 313566
       835 313578 313578 313578 313578
       836 313588 313588 313588 313588
       837 313592 313592 313592 313592
       838 313603 313603 313603 313603
       839 313615 313615 313615 313615
       840 313625 313625 313625 313625
       841 313629 313629 313629 313629
       842 313637 313637 313637 313637
       843 313645 313645 313645 313645
       844 313657 313657 313657 313657
       845 313667 313667 313667 313667
       846 313671 313671 313671 313671
       847 313675 313675 313675 313675
       848 313684 313684 313684 313684
       849 313695 313695 313695 313695
       850 313705 313705 313705 313705
       851 313709 313709 313709 313709
       852 313712 313712 313712 313712
       853 313714 313714 313714 313714
       854 313722 313722 313722 313722
       855 313733 313733 313733 313733
       856 313743 313743 313743 313743
       857 313747 313747 313747 313747
       858 313752 313752 313752 313752
       859 313754 313754 313754 313754
       860 313755 313755 313755 313755
       861 313756 313756 313756 313756
       862 313764 313764 313764 313764
       863 313785 313785 313785 313785
       864 313789 313789 313789 313789
       865 313793 313793 313793 313793
       866 313810 313810 313810 313810
       867 313822 313822 313822 313822
       868 313826 313826 313826 313826
       869 313839 313839 313839 313839
       870 313848 313848 313848 313848
       871 313860 313860 313860 313860
       872 313864 313864 313864 313864
       873 313876 313876 313876 313876
       874 313885 313885 313885 313885
       875 313897 313897 313897 313897
       876 313901 313901 313901 313901
       877 313916 313916 313916 313916
       878 313926 313926 313926 313926
       879 313938 313938 313938 313938
       880 313942 313942 313942 313942
       881 313954 313954 313954 313954
       882 313964 313964 313964 313964
       883 313975 313975 313975 313975
       884 313978 313978 313978 313978
       885 313989 313989 313989 313989
       886 313999 313999 313999 313999
       887 314011 314011 314011 314011
       888 314015 314015 314015 314015
       889 314020 314020 314020 314020
       890 314030 314030 314030 314030
       891 314039 314039 314039 314039
       892 314051 314051 314051 314051
       893 314055 314055 314055 314055
       894 314060 314060 314060 314060
       895 314067 314067 314067 314067
       896 314077 314077 314077 314077
       897 314089 314089 314089 314089
       898 314093 314093 314093 314093
       899 314106 314106 314106 314106
       900 314115 314115 314115 314115
       901 314127 314127 314127 314127
       902 314131 314131 314131 314131
       903 314144 314144 314144 314144
       904 314153 314153 314153 314153
       905 314165 314165 314165 314165
       906 314169 314169 314169 314169
       907 314186 314186 314186 314186
       908 314196 314196 314196 314196
       909 314201 314201 314201 314201
       910 314208 314208 314208 314208
       911 314212 314212 314212 314212
       912 314222 314222 314222 314222
       913 314232 314232 314232 314232
       914 314237 314237 314237 314237
       915 314244 314244 314244 314244
       916 314248 314248 314248 314248
       917 314260 314260 314260 314260
       918 314270 314270 314270 314270
       919 314275 314275 314275 314275
       920 314282 314282 314282 314282
       921 314286 314286 314286 314286
       922 314299 314299 314299 314299
       923 314309 314309 314309 314309
       924 314314 314314 314314 314314
       925 314325 314325 314325 314325
       926 314339 314339 314339 314339
       927 314349 314349 314349 314349
       928 314354 314354 314354 314354
       929 314365 314365 314365 314365
       930 314375 314375 314375 314375
       931 314384 314384 314384 314384
       932 314389 314389 314389 314389
       933 314400 314400 314400 314400
       934 314415 314415 314415 314415
       935 314425 314425 314425 314425
       936 314430 314430 314430 314430
       937 314441 314441 314441 314441
       938 314446 314446 314446 314446
       939 314458 314458 314458 314458
       940 314468 314468 314468 314468
       941 314473 314473 314473 314473
       942 314484 314484 314484 314484
       943 314498 314498 314498 314498
       944 314508 314508 314508 314508
       945 314513 314513 314513 314513
       946 314524 314524 314524 314524
       947 314536 314536 314536 314536
       948 314546 314546 314546 314546
       949 314550 314550 314550 314550
       950 314561 314561 314561 314561
       951 314574 314574 314574 314574
       952 314584 314584 314584 314584
       953 314588 314588 314588 314588
       954 314598 314598 314598 314598
       955 314610 314610 314610 314610
       956 314620 314620 314620 314620
       957 314624 314624 314624 314624
       958 314634 314634 314634 314634
       959 314648 314648 314648 314648
       960 314657 314657 314657 314657
       961 314658 314658 314658 314658
       962 314662 314662 314662 314662
       963 314673 314673 314673 314673
       964 314684 314684 314684 314684
       965 314693 314693 314693 314693
       966 314694 314694 314694 314694
       967 314698 314698 314698 314698
       968 314709 314709 314709 314709
       969 314722 314722 314722 314722
       970 314732 314732 314732 314732
       971 314736 314736 314736 314736
       972 314747 314747 314747 314747
       973 314758 314758 314758 314758
       974 314768 314768 314768 314768
       975 314769 314769 314769 314769
       976 314773 314773 314773 314773
       977 314784 314784 314784 314784
       978 314787 314787 314787 314787
       979 314794 314794 314794 314794
       980 314804 314804 314804 314804
       981 314805 314805 314805 314805
       982 314809 314809 314809 314809
       983 314820 314820 314820 314820
       984 314834 314834 314834 314834
       985 314843 314843 314843 314843
       986 314844 314844 314844 314844
       987 314848 314848 314848 314848
       988 314858 314858 314858 314858
       989 314869 314869 314869 314869
       990 314879 314879 314879 314879
       991 314880 314880 314880 314880
       992 314884 314884 314884 314884
       993 314894 314894 314894 314894
       994 314907 314907 314907 314907
       995 314917 314917 314917 314917
       996 314918 314918 314918 314918
       997 314922 314922 314922 314922
       998 314933 314933 314933 314933
       999 314938 314938 314938 314938
       1000 314947 314947 314947 314947
       1001 314957 314957 314957 314957
       1002 314958 314958 314958 314958
       1003 314962 314962 314962 314962
       1004 314973 314973 314973 314973
       1005 314985 314985 314985 314985
       1006 314995 314995 314995 314995
       1007 314996 314996 314996 314996
       1008 315000 315000 315000 315000
       1009 315011 315011 315011 315011
       1010 315034 315034 315034 315034
       1011 315035 315035 315035 315035
       1012 315039 315039 315039 315039
       1013 315050 315050 315050 315050
       1014 315053 315053 315053 315053
       1015 315064 315064 315064 315064
       1016 315074 315074 315074 315074
       1017 315075 315075 315075 315075
       1018 315079 315079 315079 315079
       1019 315090 315090 315090 315090
       1020 315102 315102 315102 315102
       1021 315111 315111 315111 315111
       1022 315112 315112 315112 315112
       1023 315116 315116 315116 315116
       1024 315127 315127 315127 315127
       1025 315137 315137 315137 315137
       1026 315147 315147 315147 315147
       1027 315148 315148 315148 315148
       1028 315152 315152 315152 315152
       1029 315163 315163 315163 315163
       1030 315175 315175 315175 315175
       1031 315185 315185 315185 315185
       1032 315186 315186 315186 315186
       1033 315190 315190 315190 315190
       1034 315201 315201 315201 315201
       1035 315213 315213 315213 315213
       1036 315223 315223 315223 315223
       1037 315224 315224 315224 315224
       1038 315228 315228 315228 315228
       1039 315239 315239 315239 315239
       1040 315245 315245 315245 315245
       1041 315259 315259 315259 315259
       1042 315260 315260 315260 315260
       1043 315264 315264 315264 315264
       1044 315275 315275 315275 315275
       1045 315289 315289 315289 315289
       1046 315299 315299 315299 315299
       1047 315300 315300 315300 315300
       1048 315304 315304 315304 315304
       1049 315315 315315 315315 315315
       1050 315326 315326 315326 315326
       1051 315336 315336 315336 315336
       1052 315337 315337 315337 315337
       1053 315341 315341 315341 315341
       1054 315352 315352 315352 315352
       1055 315363 315363 315363 315363
       1056 315372 315372 315372 315372
       1057 315373 315373 315373 315373
       1058 315377 315377 315377 315377
       1059 315388 315388 315388 315388
       1060 315391 315391 315391 315391
       1061 315403 315403 315403 315403
       1062 315413 315413 315413 315413
       1063 315414 315414 315414 315414
       1064 315418 315418 315418 315418
       1065 315429 315429 315429 315429
       1066 315442 315442 315442 315442
       1067 315452 315452 315452 315452
       1068 315453 315453 315453 315453
       1069 315457 315457 315457 315457
       1070 315468 315468 315468 315468
       1071 315479 315479 315479 315479
       1072 315489 315489 315489 315489
       1073 315490 315490 315490 315490
       1074 315494 315494 315494 315494
       1075 315505 315505 315505 315505
       1076 315518 315518 315518 315518
       1077 315528 315528 315528 315528
       1078 315529 315529 315529 315529
       1079 315533 315533 315533 315533
       1080 315544 315544 315544 315544
       1081 315556 315556 315556 315556
       1082 315558 315558 315558 315558
       1083 315568 315568 315568 315568
       1084 315572 315572 315572 315572
       1085 315583 315583 315583 315583
       1086 315595 315595 315595 315595
       1087 315605 315605 315605 315605
       1088 315606 315606 315606 315606
       1089 315610 315610 315610 315610
       1090 315621 315621 315621 315621
       1091 315633 315633 315633 315633
       1092 315643 315643 315643 315643
       1093 315644 315644 315644 315644
       1094 315648 315648 315648 315648
       1095 315659 315659 315659 315659
       1096 315662 315662 315662 315662
       1097 315665 315665 315665 315665
       1098 315674 315674 315674 315674
       1099 315684 315684 315684 315684
       1100 315685 315685 315685 315685
       1101 315689 315689 315689 315689
       1102 315700 315700 315700 315700
       1103 315714 315714 315714 315714
       1104 315724 315724 315724 315724
       1105 315725 315725 315725 315725
       1106 315729 315729 315729 315729
       1107 315740 315740 315740 315740
       1108 315751 315751 315751 315751
       1109 315761 315761 315761 315761
       1110 315762 315762 315762 315762
       1111 315766 315766 315766 315766
       1112 315777 315777 315777 315777
       1113 315791 315791 315791 315791
       1114 315801 315801 315801 315801
       1115 315802 315802 315802 315802
       1116 315806 315806 315806 315806
       1117 315817 315817 315817 315817
       1118 315829 315829 315829 315829
       1119 315839 315839 315839 315839
       1120 315840 315840 315840 315840
       1121 315844 315844 315844 315844
       1122 315855 315855 315855 315855
       1123 315859 315859 315859 315859
       1124 315867 315867 315867 315867
       1125 315877 315877 315877 315877
       1126 315878 315878 315878 315878
       1127 315882 315882 315882 315882
       1128 315893 315893 315893 315893
       1129 315900 315900 315900 315900
       1130 315907 315907 315907 315907
       1131 315917 315917 315917 315917
       1132 315918 315918 315918 315918
       1133 315922 315922 315922 315922
       1134 315933 315933 315933 315933
       1135 315943 315943 315943 315943
       1136 315953 315953 315953 315953
       1137 315954 315954 315954 315954
       1138 315958 315958 315958 315958
       1139 315969 315969 315969 315969
       1140 315982 315982 315982 315982
       1141 315991 315991 315991 315991
       1142 315992 315992 315992 315992
       1143 315996 315996 315996 315996
       1144 316007 316007 316007 316007
       1145 316022 316022 316022 316022
       1146 316032 316032 316032 316032
       1147 316033 316033 316033 316033
       1148 316037 316037 316037 316037
       1149 316048 316048 316048 316048
       1150 316057 316057 316057 316057
       1151 316059 316059 316059 316059
       1152 316069 316069 316069 316069
       1153 316074 316074 316074 316074
       1154 316085 316085 316085 316085
       1155 316097 316097 316097 316097
       1156 316106 316106 316106 316106
       1157 316107 316107 316107 316107
       1158 316111 316111 316111 316111
       1159 316122 316122 316122 316122
       1160 316127 316127 316127 316127
       1161 316128 316128 316128 316128
       1162 316137 316137 316137 316137
       1163 316146 316146 316146 316146
       1164 316147 316147 316147 316147
       1165 316151 316151 316151 316151
       1166 316162 316162 316162 316162
       1167 316174 316174 316174 316174
       1168 316184 316184 316184 316184
       1169 316185 316185 316185 316185
       1170 316189 316189 316189 316189
       1171 316200 316200 316200 316200
       1172 316214 316214 316214 316214
       1173 316224 316224 316224 316224
       1174 316225 316225 316225 316225
       1175 316229 316229 316229 316229
       1176 316240 316240 316240 316240
       1177 316251 316251 316251 316251
       1178 316260 316260 316260 316260
       1179 316261 316261 316261 316261
       1180 316265 316265 316265 316265
       1181 316276 316276 316276 316276
       1182 316284 316284 316284 316284
       1183 316294 316294 316294 316294
       1184 316295 316295 316295 316295
       1185 316299 316299 316299 316299
       1186 316310 316310 316310 316310
       1187 316319 316319 316319 316319
       1188 316329 316329 316329 316329
       1189 316330 316330 316330 316330
       1190 316334 316334 316334 316334
       1191 316345 316345 316345 316345
       1192 316355 316355 316355 316355
       1193 316364 316364 316364 316364
       1194 316365 316365 316365 316365
       1195 316369 316369 316369 316369
       1196 316380 316380 316380 316380
       1197 316392 316392 316392 316392
       1198 316400 316400 316400 316400
       1199 316401 316401 316401 316401
       1200 316405 316405 316405 316405
       1201 316416 316416 316416 316416
       1202 316419 316419 316419 316419
       1203 316421 316421 316421 316421
       1204 316429 316429 316429 316429
       1205 316438 316438 316438 316438
       1206 316439 316439 316439 316439
       1207 316443 316443 316443 316443
       1208 316454 316454 316454 316454
       1209 316464 316464 316464 316464
       1210 316473 316473 316473 316473
       1211 316474 316474 316474 316474
       1212 316477 316477 316477 316477
       1213 316488 316488 316488 316488
       1214 316491 316491 316491 316491
       1215 316501 316501 316501 316501
       1216 316510 316510 316510 316510
       1217 316511 316511 316511 316511
       1218 316512 316512 316512 316512
       1219 316515 316515 316515 316515
       1220 316526 316526 316526 316526
       1221 316529 316529 316529 316529
       1222 316541 316541 316541 316541
       1223 316549 316549 316549 316549
       1224 316550 316550 316550 316550
       1225 316551 316551 316551 316551
       1226 316554 316554 316554 316554
       1227 316561 316561 316561 316561
       1228 316565 316565 316565 316565
       1229 316577 316577 316577 316577
       1230 316587 316587 316587 316587
       1231 316588 316588 316588 316588
       1232 316599 316599 316599 316599
       1233 316603 316603 316603 316603
       1234 316616 316616 316616 316616
       1235 316626 316626 316626 316626
       1236 316627 316627 316627 316627
       1237 316638 316638 316638 316638
       1238 316642 316642 316642 316642
       1239 316655 316655 316655 316655
       1240 316665 316665 316665 316665
       1241 316666 316666 316666 316666
       1242 316681 316681 316681 316681
       1243 316691 316691 316691 316691
       1244 316701 316701 316701 316701
       1245 316702 316702 316702 316702
       1246 316717 316717 316717 316717
       1247 316731 316731 316731 316731
       1248 316741 316741 316741 316741
       1249 316742 316742 316742 316742
       1250 316757 316757 316757 316757
       1251 316760 316760 316760 316760
       1252 316770 316770 316770 316770
       1253 316780 316780 316780 316780
       1254 316781 316781 316781 316781
       1255 316796 316796 316796 316796
       1256 316809 316809 316809 316809
       1257 316819 316819 316819 316819
       1258 316820 316820 316820 316820
       1259 316835 316835 316835 316835
       1260 316850 316850 316850 316850
       1261 316860 316860 316860 316860
       1262 316861 316861 316861 316861
       1263 316876 316876 316876 316876
       1264 316881 316881 316881 316881
       1265 316885 316885 316885 316885
       1266 316891 316891 316891 316891
       1267 316901 316901 316901 316901
       1268 316902 316902 316902 316902
       1269 316915 316915 316915 316915
       1270 316922 316922 316922 316922
       1271 316930 316930 316930 316930
       1272 316940 316940 316940 316940
       1273 316941 316941 316941 316941
       1274 316956 316956 316956 316956
       1275 316963 316963 316963 316963
       1276 316971 316971 316971 316971
       1277 316980 316980 316980 316980
       1278 316981 316981 316981 316981
       1279 316996 316996 316996 316996
       1280 317000 317000 317000 317000
       1281 317002 317002 317002 317002
       1282 317010 317010 317010 317010
       1283 317019 317019 317019 317019
       1284 317020 317020 317020 317020
       1285 317035 317035 317035 317035
       1286 317049 317049 317049 317049
       1287 317059 317059 317059 317059
       1288 317060 317060 317060 317060
       1289 317075 317075 317075 317075
       1290 317079 317079 317079 317079
       1291 317081 317081 317081 317081
       1292 317089 317089 317089 317089
       1293 317099 317099 317099 317099
       1294 317100 317100 317100 317100
       1295 317115 317115 317115 317115
       1296 317130 317130 317130 317130
       1297 317138 317138 317138 317138
       1298 317139 317139 317139 317139
       1299 317154 317154 317154 317154
       1300 317159 317159 317159 317159
       1301 317168 317168 317168 317168
       1302 317178 317178 317178 317178
       1303 317179 317179 317179 317179
       1304 317194 317194 317194 317194
       1305 317206 317206 317206 317206
       1306 317216 317216 317216 317216
       1307 317217 317217 317217 317217
       1308 317232 317232 317232 317232
       1309 317245 317245 317245 317245
       1310 317255 317255 317255 317255
       1311 317256 317256 317256 317256
       1312 317271 317271 317271 317271
       1313 317283 317283 317283 317283
       1314 317293 317293 317293 317293
       1315 317294 317294 317294 317294
       1316 317309 317309 317309 317309
       1317 317320 317320 317320 317320
       1318 317330 317330 317330 317330
       1319 317331 317331 317331 317331
       1320 317346 317346 317346 317346
       1321 317358 317358 317358 317358
       1322 317368 317368 317368 317368
       1323 317369 317369 317369 317369
       1324 317384 317384 317384 317384
       1325 317395 317395 317395 317395
       1326 317405 317405 317405 317405
       1327 317406 317406 317406 317406
       1328 317421 317421 317421 317421
       1329 317433 317433 317433 317433
       1330 317443 317443 317443 317443
       1331 317444 317444 317444 317444
       1332 317459 317459 317459 317459
       1333 317474 317474 317474 317474
       1334 317484 317484 317484 317484
       1335 317485 317485 317485 317485
       1336 317500 317500 317500 317500
       1337 317501 317501 317501 317501
       1338 317514 317514 317514 317514
       1339 317522 317522 317522 317522
       1340 317523 317523 317523 317523
       1341 317537 317537 317537 317537
       1342 317538 317538 317538 317538
       1343 317552 317552 317552 317552
       1344 317561 317561 317561 317561
       1345 317562 317562 317562 317562
       1346 317577 317577 317577 317577
       1347 317578 317578 317578 317578
       1348 317590 317590 317590 317590
       1349 317600 317600 317600 317600
       1350 317601 317601 317601 317601
       1351 317616 317616 317616 317616
       1352 317617 317617 317617 317617
       1353 317631 317631 317631 317631
       1354 317640 317640 317640 317640
       1355 317641 317641 317641 317641
       1356 317656 317656 317656 317656
       1357 317669 317669 317669 317669
       1358 317679 317679 317679 317679
       1359 317680 317680 317680 317680
       1360 317694 317694 317694 317694
       1361 317695 317695 317695 317695
       1362 317700 317700 317700 317700
       1363 317710 317710 317710 317710
       1364 317719 317719 317719 317719
       1365 317720 317720 317720 317720
       1366 317735 317735 317735 317735
       1367 317736 317736 317736 317736
       1368 317759 317759 317759 317759
       1369 317760 317760 317760 317760
       1370 317775 317775 317775 317775
       1371 317776 317776 317776 317776
       1372 317790 317790 317790 317790
       1373 317800 317800 317800 317800
       1374 317801 317801 317801 317801
       1375 317816 317816 317816 317816
       1376 317817 317817 317817 317817
       1377 317833 317833 317833 317833
       1378 317844 317844 317844 317844
       1379 317845 317845 317845 317845
       1380 317860 317860 317860 317860
       1381 317861 317861 317861 317861
       1382 317875 317875 317875 317875
       1383 317886 317886 317886 317886
       1384 317887 317887 317887 317887
       1385 317902 317902 317902 317902
       1386 317903 317903 317903 317903
       1387 317915 317915 317915 317915
       1388 317925 317925 317925 317925
       1389 317926 317926 317926 317926
       1390 317941 317941 317941 317941
       1391 317942 317942 317942 317942
       1392 317956 317956 317956 317956
       1393 317966 317966 317966 317966
       1394 317967 317967 317967 317967
       1395 317982 317982 317982 317982
       1396 317983 317983 317983 317983
       1397 317995 317995 317995 317995
       1398 318005 318005 318005 318005
       1399 318006 318006 318006 318006
       1400 318021 318021 318021 318021
       1401 318022 318022 318022 318022
       1402 318033 318033 318033 318033
       1403 318043 318043 318043 318043
       1404 318044 318044 318044 318044
       1405 318059 318059 318059 318059
       1406 318060 318060 318060 318060
       1407 318068 318068 318068 318068
       1408 318078 318078 318078 318078
       1409 318079 318079 318079 318079
       1410 318094 318094 318094 318094
       1411 318095 318095 318095 318095
       1412 318108 318108 318108 318108
       1413 318118 318118 318118 318118
       1414 318119 318119 318119 318119
       1415 318134 318134 318134 318134
       1416 318135 318135 318135 318135
       1417 318148 318148 318148 318148
       1418 318158 318158 318158 318158
       1419 318159 318159 318159 318159
       1420 318174 318174 318174 318174
       1421 318175 318175 318175 318175
       1422 318186 318186 318186 318186
       1423 318196 318196 318196 318196
       1424 318197 318197 318197 318197
       1425 318212 318212 318212 318212
       1426 318213 318213 318213 318213
       1427 318224 318224 318224 318224
       1428 318234 318234 318234 318234
       1429 318235 318235 318235 318235
       1430 318250 318250 318250 318250
       1431 318251 318251 318251 318251
       1432 318260 318260 318260 318260
       1433 318270 318270 318270 318270
       1434 318271 318271 318271 318271
       1435 318286 318286 318286 318286
       1436 318287 318287 318287 318287
       1437 318290 318290 318290 318290
       1438 318298 318298 318298 318298
       1439 318308 318308 318308 318308
       1440 318309 318309 318309 318309
       1441 318324 318324 318324 318324
       1442 318325 318325 318325 318325
       1443 318333 318333 318333 318333
       1444 318343 318343 318343 318343
       1445 318344 318344 318344 318344
       1446 318359 318359 318359 318359
       1447 318360 318360 318360 318360
       1448 318372 318372 318372 318372
       1449 318382 318382 318382 318382
       1450 318383 318383 318383 318383
       1451 318398 318398 318398 318398
       1452 318399 318399 318399 318399
       1453 318408 318408 318408 318408
       1454 318417 318417 318417 318417
       1455 318418 318418 318418 318418
       1456 318433 318433 318433 318433
       1457 318434 318434 318434 318434
       1458 318445 318445 318445 318445
       1459 318454 318454 318454 318454
       1460 318455 318455 318455 318455
       1461 318460 318460 318460 318460
       1462 318470 318470 318470 318470
       1463 318471 318471 318471 318471
       1464 318483 318483 318483 318483
       1465 318492 318492 318492 318492
       1466 318493 318493 318493 318493
       1467 318498 318498 318498 318498
       1468 318508 318508 318508 318508
       1469 318509 318509 318509 318509
       1470 318521 318521 318521 318521
       1471 318531 318531 318531 318531
       1472 318532 318532 318532 318532
       1473 318537 318537 318537 318537
       1474 318547 318547 318547 318547
       1475 318548 318548 318548 318548
       1476 318554 318554 318554 318554
       1477 318564 318564 318564 318564
       1478 318574 318574 318574 318574
       1479 318579 318579 318579 318579
       1480 318589 318589 318589 318589
       1481 318590 318590 318590 318590
       1482 318603 318603 318603 318603
       1483 318613 318613 318613 318613
       1484 318614 318614 318614 318614
       1485 318619 318619 318619 318619
       1486 318629 318629 318629 318629
       1487 318630 318630 318630 318630
       1488 318644 318644 318644 318644
       1489 318653 318653 318653 318653
       1490 318654 318654 318654 318654
       1491 318659 318659 318659 318659
       1492 318669 318669 318669 318669
       1493 318670 318670 318670 318670
       1494 318673 318673 318673 318673
       1495 318675 318675 318675 318675
       1496 318686 318686 318686 318686
       1497 318696 318696 318696 318696
       1498 318697 318697 318697 318697
       1499 318712 318712 318712 318712
       1500 318713 318713 318713 318713
       1501 318716 318716 318716 318716
       1502 318726 318726 318726 318726
       1503 318736 318736 318736 318736
       1504 318750 318750 318750 318750
       1505 318751 318751 318751 318751
       1506 318761 318761 318761 318761
       1507 318772 318772 318772 318772
       1508 318787 318787 318787 318787
       1509 318788 318788 318788 318788
       1510 318792 318792 318792 318792
       1511 318799 318799 318799 318799
       1512 318810 318810 318810 318810
       1513 318825 318825 318825 318825
       1514 318826 318826 318826 318826
       1515 318830 318830 318830 318830
       1516 318837 318837 318837 318837
       1517 318848 318848 318848 318848
       1518 318863 318863 318863 318863
       1519 318864 318864 318864 318864
       1520 318871 318871 318871 318871
       1521 318878 318878 318878 318878
       1522 318889 318889 318889 318889
       1523 318904 318904 318904 318904
       1524 318905 318905 318905 318905
       1525 318908 318908 318908 318908
       1526 318915 318915 318915 318915
       1527 318926 318926 318926 318926
       1528 318941 318941 318941 318941
       1529 318942 318942 318942 318942
       1530 318947 318947 318947 318947
       1531 318952 318952 318952 318952
       1532 318961 318961 318961 318961
       1533 318976 318976 318976 318976
       1534 318977 318977 318977 318977
       1535 318985 318985 318985 318985
       1536 318992 318992 318992 318992
       1537 319003 319003 319003 319003
       1538 319018 319018 319018 319018
       1539 319019 319019 319019 319019
       1540 319025 319025 319025 319025
       1541 319032 319032 319032 319032
       1542 319043 319043 319043 319043
       1543 319058 319058 319058 319058
       1544 319059 319059 319059 319059
       1545 319071 319071 319071 319071
       1546 319082 319082 319082 319082
       1547 319097 319097 319097 319097
       1548 319098 319098 319098 319098
       1549 319110 319110 319110 319110
       1550 319120 319120 319120 319120
       1551 319135 319135 319135 319135
       1552 319136 319136 319136 319136
       1553 319148 319148 319148 319148
       1554 319158 319158 319158 319158
       1555 319173 319173 319173 319173
       1556 319174 319174 319174 319174
       1557 319181 319181 319181 319181
       1558 319186 319186 319186 319186
       1559 319196 319196 319196 319196
       1560 319211 319211 319211 319211
       1561 319212 319212 319212 319212
       1562 319217 319217 319217 319217
       1563 319223 319223 319223 319223
       1564 319233 319233 319233 319233
       1565 319248 319248 319248 319248
       1566 319249 319249 319249 319249
       1567 319255 319255 319255 319255
       1568 319261 319261 319261 319261
       1569 319272 319272 319272 319272
       1570 319287 319287 319287 319287
       1571 319288 319288 319288 319288
       1572 319294 319294 319294 319294
       1573 319300 319300 319300 319300
       1574 319311 319311 319311 319311
       1575 319326 319326 319326 319326
       1576 319327 319327 319327 319327
       1577 319331 319331 319331 319331
       1578 319337 319337 319337 319337
       1579 319348 319348 319348 319348
       1580 319363 319363 319363 319363
       1581 319364 319364 319364 319364
       1582 319367 319367 319367 319367
       1583 319373 319373 319373 319373
       1584 319384 319384 319384 319384
       1585 319399 319399 319399 319399
       1586 319400 319400 319400 319400
       1587 319405 319405 319405 319405
       1588 319411 319411 319411 319411
       1589 319422 319422 319422 319422
       1590 319437 319437 319437 319437
       1591 319438 319438 319438 319438
       1592 319440 319440 319440 319440
       1593 319447 319447 319447 319447
       1594 319458 319458 319458 319458
       1595 319473 319473 319473 319473
       1596 319474 319474 319474 319474
       1597 319477 319477 319477 319477
       1598 319483 319483 319483 319483
       1599 319493 319493 319493 319493
       1600 319508 319508 319508 319508
       1601 319510 319510 319510 319510
       1602 319515 319515 319515 319515
       1603 319526 319526 319526 319526
       1604 319541 319541 319541 319541
       1605 319542 319542 319542 319542
       1606 319545 319545 319545 319545
       1607 319551 319551 319551 319551
       1608 319562 319562 319562 319562
       1609 319577 319577 319577 319577
       1610 319578 319578 319578 319578
       1611 319583 319583 319583 319583
       1612 319588 319588 319588 319588
       1613 319598 319598 319598 319598
       1614 319613 319613 319613 319613
       1615 319614 319614 319614 319614
       1616 319618 319618 319618 319618
       1617 319623 319623 319623 319623
       1618 319634 319634 319634 319634
       1619 319650 319650 319650 319650
       1620 319653 319653 319653 319653
       1621 319659 319659 319659 319659
       1622 319670 319670 319670 319670
       1623 319686 319686 319686 319686
       1624 319694 319694 319694 319694
       1625 319699 319699 319699 319699
       1626 319710 319710 319710 319710
       1627 319726 319726 319726 319726
       1628 319736 319736 319736 319736
       1629 319747 319747 319747 319747
       1630 319763 319763 319763 319763
       1631 319765 319765 319765 319765
       1632 319772 319772 319772 319772
       1633 319783 319783 319783 319783
       1634 319799 319799 319799 319799
       1635 319808 319808 319808 319808
       1636 319819 319819 319819 319819
       1637 319835 319835 319835 319835
       1638 319839 319839 319839 319839
       1639 319847 319847 319847 319847
       1640 319858 319858 319858 319858
       1641 319874 319874 319874 319874
       1642 319886 319886 319886 319886
       1643 319897 319897 319897 319897
       1644 319913 319913 319913 319913
       1645 319924 319924 319924 319924
       1646 319935 319935 319935 319935
       1647 319951 319951 319951 319951
       1648 319961 319961 319961 319961
       1649 319972 319972 319972 319972
       1650 319988 319988 319988 319988
       1651 319997 319997 319997 319997
       1652 320008 320008 320008 320008
       1653 320024 320024 320024 320024
       1654 320034 320034 320034 320034
[...]
      node  number 17324 deleted at time  4.8527E-05
     solid element 33028  failed at time  4.8527E-05
 f a i l e d   e l e m e n t   r e p o r t  time=  4.8527E-05
     number of failed solid  elements = 1946
     number of failed beam   elements = 0
     number of failed shell  elements = 0
     number of failed tshell elements = 0

 S u m m a r y   F r o m   A l l  P r o c e s s o r s
 f a i l e d   e l e m e n t   r e p o r t  time= 4.85266E-05

 CPU     0 CPU     1 CPU     2 CPU     3                                        
 --------- --------- --------- ---------                                        
      1946        66         0         0  
         0         0         0         0  
         0         0         0         0  
         0         0         0         0  

      total number of failed solid  elements =    2012
      total number of failed beam   elements =       0
      total number of failed shell  elements =       0
      total number of failed tshell elements =       0
 f a i l e d   e l e m e n t   r e p o r t  time=  4.8974E-05
     number of failed solid  elements = 1946
     number of failed beam   elements = 0
     number of failed shell  elements = 0
     number of failed tshell elements = 0

 S u m m a r y   F r o m   A l l  P r o c e s s o r s
 f a i l e d   e l e m e n t   r e p o r t  time= 4.89738E-05

 CPU     0 CPU     1 CPU     2 CPU     3                                        
 --------- --------- --------- ---------                                        
      1946        67         0         0  
         0         0         0         0  
         0         0         0         0  
         0         0         0         0  

      total number of failed solid  elements =    2013
      total number of failed beam   elements =       0
      total number of failed shell  elements =       0
      total number of failed tshell elements =       0
   45000 t 4.9103E-05 dt 1.23E-09 flush i/o buffers            04/08/22 14:26:46
 Element deleted due to damage
      node  number 300493 deleted at time  4.9442E-05
      node  number 23483 deleted at time  4.9442E-05
     solid element 39160  failed at time  4.9442E-05
 f a i l e d   e l e m e n t   r e p o r t  time=  4.9442E-05
     number of failed solid  elements = 1947
     number of failed beam   elements = 0
     number of failed shell  elements = 0
     number of failed tshell elements = 0

 S u m m a r y   F r o m   A l l  P r o c e s s o r s
 f a i l e d   e l e m e n t   r e p o r t  time= 4.94419E-05

 CPU     0 CPU     1 CPU     2 CPU     3                                        
 --------- --------- --------- ---------                                        
      1947        67         0         0  
         0         0         0         0  
         0         0         0         0  
         0         0         0         0  

      total number of failed solid  elements =    2014
      total number of failed beam   elements =       0
      total number of failed shell  elements =       0
      total number of failed tshell elements =       0
 Element deleted due to damage
     solid element 34933  failed at time  4.9573E-05
 f a i l e d   e l e m e n t   r e p o r t  time=  4.9573E-05
     number of failed solid  elements = 1948
     number of failed beam   elements = 0
     number of failed shell  elements = 0
     number of failed tshell elements = 0

 S u m m a r y   F r o m   A l l  P r o c e s s o r s
 f a i l e d   e l e m e n t   r e p o r t  time= 4.95731E-05

 CPU     0 CPU     1 CPU     2 CPU     3                                        
 --------- --------- --------- ---------                                        
      1948        67         0         0  
         0         0         0         0  
         0         0         0         0  
         0         0         0         0  

      total number of failed solid  elements =    2015
      total number of failed beam   elements =       0
      total number of failed shell  elements =       0
      total number of failed tshell elements =       0
 Element deleted due to damage
      node  number 303444 deleted at time  4.9595E-05
      node  number 303445 deleted at time  4.9595E-05
      node  number 307299 deleted at time  4.9595E-05
      node  number 307298 deleted at time  4.9595E-05
      node  number 19952 deleted at time  4.9595E-05
      node  number 19995 deleted at time  4.9595E-05
      node  number 19996 deleted at time  4.9595E-05
      node  number 19953 deleted at time  4.9595E-05
     solid element 34971  failed at time  4.9595E-05
 f a i l e d   e l e m e n t   r e p o r t  time=  4.9595E-05
     number of failed solid  elements = 1949
     number of failed beam   elements = 0
     number of failed shell  elements = 0
     number of failed tshell elements = 0

 S u m m a r y   F r o m   A l l  P r o c e s s o r s
 f a i l e d   e l e m e n t   r e p o r t  time= 4.95951E-05

 CPU     0 CPU     1 CPU     2 CPU     3                                        
 --------- --------- --------- ---------                                        
      1949        67         0         0  
         0         0         0         0  
         0         0         0         0  
         0         0         0         0  

      total number of failed solid  elements =    2016
      total number of failed beam   elements =       0
      total number of failed shell  elements =       0
      total number of failed tshell elements =       0
   46140 t 5.0499E-05 dt 1.23E-09 write d3plot file            04/08/22 14:26:52
 Element deleted due to damage
     solid element 34319  failed at time  5.2175E-05
 f a i l e d   e l e m e n t   r e p o r t  time=  5.2175E-05
     number of failed solid  elements = 1950
     number of failed beam   elements = 0
     number of failed shell  elements = 0
     number of failed tshell elements = 0

 S u m m a r y   F r o m   A l l  P r o c e s s o r s
 f a i l e d   e l e m e n t   r e p o r t  time= 5.21746E-05

 CPU     0 CPU     1 CPU     2 CPU     3                                        
 --------- --------- --------- ---------                                        
      1950        67         0         0  
         0         0         0         0  
         0         0         0         0  
         0         0         0         0  

      total number of failed solid  elements =    2017
      total number of failed beam   elements =       0
      total number of failed shell  elements =       0
      total number of failed tshell elements =       0
   47788 t 5.2519E-05 dt 1.23E-09 write d3plot file            04/08/22 14:27:02
 Element deleted due to damage
     solid element 34425  failed at time  5.3237E-05
 f a i l e d   e l e m e n t   r e p o r t  time=  5.3237E-05
     number of failed solid  elements = 1951
     number of failed beam   elements = 0
     number of failed shell  elements = 0
     number of failed tshell elements = 0

 S u m m a r y   F r o m   A l l  P r o c e s s o r s
 f a i l e d   e l e m e n t   r e p o r t  time= 5.32370E-05

 CPU     0 CPU     1 CPU     2 CPU     3                                        
 --------- --------- --------- ---------                                        
      1951        67         0         0  
         0         0         0         0  
         0         0         0         0  
         0         0         0         0  

      total number of failed solid  elements =    2018
      total number of failed beam   elements =       0
      total number of failed shell  elements =       0
      total number of failed tshell elements =       0
 f a i l e d   e l e m e n t   r e p o r t  time=  5.3692E-05
     number of failed solid  elements = 1951
     number of failed beam   elements = 0
     number of failed shell  elements = 0
     number of failed tshell elements = 0

 S u m m a r y   F r o m   A l l  P r o c e s s o r s
 f a i l e d   e l e m e n t   r e p o r t  time= 5.36917E-05

 CPU     0 CPU     1 CPU     2 CPU     3                                        
 --------- --------- --------- ---------                                        
      1951        68         0         0  
         0         0         0         0  
         0         0         0         0  
         0         0         0         0  

      total number of failed solid  elements =    2019
      total number of failed beam   elements =       0
      total number of failed shell  elements =       0
      total number of failed tshell elements =       0
   49437 t 5.4540E-05 dt 1.23E-09 write d3plot file            04/08/22 14:27:12
   50000 t 5.5230E-05 dt 1.23E-09 flush i/o buffers            04/08/22 14:27:15
   51085 t 5.6559E-05 dt 1.23E-09 write d3plot file            04/08/22 14:27:21
 f a i l e d   e l e m e n t   r e p o r t  time=  5.6581E-05
     number of failed solid  elements = 1951
     number of failed beam   elements = 0
     number of failed shell  elements = 0
     number of failed tshell elements = 0

 S u m m a r y   F r o m   A l l  P r o c e s s o r s
 f a i l e d   e l e m e n t   r e p o r t  time= 5.65812E-05

 CPU     0 CPU     1 CPU     2 CPU     3                                        
 --------- --------- --------- ---------                                        
      1951        69         0         0  
         0         0         0         0  
         0         0         0         0  
         0         0         0         0  

      total number of failed solid  elements =    2020
      total number of failed beam   elements =       0
      total number of failed shell  elements =       0
      total number of failed tshell elements =       0
 f a i l e d   e l e m e n t   r e p o r t  time=  5.7211E-05
     number of failed solid  elements = 1951
     number of failed beam   elements = 0
     number of failed shell  elements = 0
     number of failed tshell elements = 0

 S u m m a r y   F r o m   A l l  P r o c e s s o r s
 f a i l e d   e l e m e n t   r e p o r t  time= 5.72110E-05

 CPU     0 CPU     1 CPU     2 CPU     3                                        
 --------- --------- --------- ---------                                        
      1951        70         0         0  
         0         0         0         0  
         0         0         0         0  
         0         0         0         0  

      total number of failed solid  elements =    2021
      total number of failed beam   elements =       0
      total number of failed shell  elements =       0
      total number of failed tshell elements =       0
 Element deleted due to damage
     solid element 36181  failed at time  5.8472E-05
 f a i l e d   e l e m e n t   r e p o r t  time=  5.8472E-05
     number of failed solid  elements = 1952
     number of failed beam   elements = 0
     number of failed shell  elements = 0
     number of failed tshell elements = 0

 S u m m a r y   F r o m   A l l  P r o c e s s o r s
 f a i l e d   e l e m e n t   r e p o r t  time= 5.84720E-05

 CPU     0 CPU     1 CPU     2 CPU     3                                        
 --------- --------- --------- ---------                                        
      1952        70         0         0  
         0         0         0         0  
         0         0         0         0  
         0         0         0         0  

      total number of failed solid  elements =    2022
      total number of failed beam   elements =       0
      total number of failed shell  elements =       0
      total number of failed tshell elements =       0
   52734 t 5.8580E-05 dt 1.23E-09 write d3plot file            04/08/22 14:27:31
 f a i l e d   e l e m e n t   r e p o r t  time=  5.8590E-05
     number of failed solid  elements = 1952
     number of failed beam   elements = 0
     number of failed shell  elements = 0
     number of failed tshell elements = 0

 S u m m a r y   F r o m   A l l  P r o c e s s o r s
 f a i l e d   e l e m e n t   r e p o r t  time= 5.85896E-05

 CPU     0 CPU     1 CPU     2 CPU     3                                        
 --------- --------- --------- ---------                                        
      1952        71         0         0  
         0         0         0         0  
         0         0         0         0  
         0         0         0         0  

      total number of failed solid  elements =    2023
      total number of failed beam   elements =       0
      total number of failed shell  elements =       0
      total number of failed tshell elements =       0
 
 *** termination time reached ***
   53892 t 6.0000E-05 dt 1.23E-09 write d3plot file            04/08/22 14:27:38

 N o r m a l    t e r m i n a t i o n                          04/08/22 14:27:38

 S t o r a g e   a l l o c a t i o n   

 Memory required to complete solution   :     274K
 Additional dynamically allocated memory:      33M
                                   Total:      33M


 P r o c e s s o r   #         0

 T i m i n g   i n f o r m a t i o n
                        CPU(seconds)   %CPU  Clock(seconds) %Clock
  ----------------------------------------------------------------
  Keyword Processing ... 2.1061E-01    0.08     4.6025E-01    0.17
    KW Reading ......... 7.5625E-02    0.03     1.0941E-01    0.04
    KW Writing ......... 4.4530E-02    0.02     1.1008E-01    0.04
  MPP Decomposition .... 4.4295E-01    0.17     8.0920E-01    0.30
    Init Proc .......... 3.0306E-01    0.11     5.9394E-01    0.22
    Decomposition ...... 1.7399E-02    0.01     4.5708E-02    0.02
    Translation ........ 1.2240E-01    0.05     1.6946E-01    0.06
  Initialization ....... 1.2585E-01    0.05     3.4537E-01    0.13
    Init Proc Phase 1 .. 9.4148E-02    0.04     1.2531E-01    0.05
    Init Proc Phase 2 .. 1.1340E-02    0.00     4.0052E-02    0.01
  Init solver .......... 1.6575E-03    0.00     4.2350E-03    0.00
  Element processing ... 1.0926E+02   41.20     1.0982E+02   40.05
    Solids ............. 1.0549E+02   39.78     1.0601E+02   38.66
    E Other ............ 1.1392E-01    0.04     1.1486E-01    0.04
  Binary databases ..... 4.3034E-01    0.16     4.5241E-01    0.16
  ASCII database ....... 2.4659E+00    0.93     9.2470E+00    3.37
  Contact algorithm .... 4.9981E+01   18.85     5.0219E+01   18.31
    Interf. ID         3 1.3600E+01    5.13     1.3664E+01    4.98
    Interf. ID         2 3.1201E+01   11.76     3.1343E+01   11.43
  Rigid Bodies ......... 1.1166E-01    0.04     1.1231E-01    0.04
  DEM .................. 1.8110E+01    6.83     1.8187E+01    6.63
    DEM self contact ... 1.7604E+01    6.64     1.7681E+01    6.45
  Time step size ....... 5.7190E+01   21.56     5.7422E+01   20.94
  Group force file ..... 3.5820E-02    0.01     4.1429E-02    0.02
  Others ............... 1.5112E+00    0.57     1.5567E+00    0.57
    Force Sharing ...... 1.2461E+00    0.47     1.2510E+00    0.46
  Misc. 1 .............. 1.9608E+01    7.39     1.9751E+01    7.20
    Scale Masses ....... 1.6642E-02    0.01     1.6669E-02    0.01
    Force Constraints .. 2.2952E-02    0.01     2.2875E-02    0.01
    Force to Accel ..... 1.7220E+00    0.65     1.7262E+00    0.63
    Constraint Sharing . 2.6445E-02    0.01     2.6381E-02    0.01
    Update RB nodes .... 3.1552E-02    0.01     3.1748E-02    0.01
  Misc. 2 .............. 3.9276E+00    1.48     3.9439E+00    1.44
  Misc. 3 .............. 5.9679E-01    0.23     6.4627E-01    0.24
  Misc. 4 .............. 1.1964E+00    0.45     1.2102E+00    0.44
    Timestep Init ...... 9.1178E-01    0.34     9.0690E-01    0.33
    Apply Loads ........ 2.2911E-01    0.09     2.4348E-01    0.09
  ----------------------------------------------------------------
  T o t a l s            2.6520E+02  100.00     2.7423E+02  100.00


 A v e r a g e s

 T i m i n g   i n f o r m a t i o n
                        CPU(seconds)   %CPU  Clock(seconds) %Clock
  ----------------------------------------------------------------
  Keyword Processing ... 3.9323E-01    0.15     4.6024E-01    0.17
    KW Reading ......... 1.8906E-02    0.01     2.7352E-02    0.01
    KW Writing ......... 1.1132E-02    0.00     2.7519E-02    0.01
  MPP Decomposition .... 6.5655E-01    0.24     8.0785E-01    0.29
    Init Proc .......... 5.1980E-01    0.19     5.9430E-01    0.22
    Decomposition ...... 3.5993E-02    0.01     4.5386E-02    0.02
    Translation ........ 1.0070E-01    0.04     1.6811E-01    0.06
  Initialization ....... 1.8088E-01    0.07     3.4730E-01    0.13
    Init Proc Phase 1 .. 9.8978E-02    0.04     1.2465E-01    0.05
    Init Proc Phase 2 .. 1.1672E-02    0.00     4.0048E-02    0.01
  Init solver .......... 1.2627E-03    0.00     3.6668E-03    0.00
  Element processing ... 1.2508E+02   46.21     1.2575E+02   45.86
    Solids ............. 1.2043E+02   44.49     1.2106E+02   44.15
    E Other ............ 7.0130E-02    0.03     7.0453E-02    0.03
  Binary databases ..... 4.3579E-01    0.16     4.4998E-01    0.16
  ASCII database ....... 1.7684E+00    0.65     3.4725E+00    1.27
  Contact algorithm .... 4.8437E+01   17.90     4.8680E+01   17.75
    Interf. ID         3 1.2353E+01    4.56     1.2413E+01    4.53
    Interf. ID         2 3.0587E+01   11.30     3.0738E+01   11.21
  Rigid Bodies ......... 1.1744E-01    0.04     1.1842E-01    0.04
  DEM .................. 1.8612E+01    6.88     1.8698E+01    6.82
    DEM self contact ... 1.8109E+01    6.69     1.8196E+01    6.64
  Time step size ....... 4.1317E+01   15.27     4.1492E+01   15.13
  Group force file ..... 4.2109E-02    0.02     5.3029E-02    0.02
  Others ............... 1.4487E+00    0.54     1.5048E+00    0.55
    Force Sharing ...... 1.1922E+00    0.44     1.1969E+00    0.44
  Misc. 1 .............. 2.0557E+01    7.60     2.0677E+01    7.54
    Scale Masses ....... 1.7210E-02    0.01     1.7380E-02    0.01
    Force Constraints .. 2.2482E-02    0.01     2.2557E-02    0.01
    Force to Accel ..... 1.7787E+00    0.66     1.7830E+00    0.65
    Constraint Sharing . 2.8136E-02    0.01     2.8288E-02    0.01
    Update RB nodes .... 2.7393E-02    0.01     2.8966E-02    0.01
  Misc. 2 .............. 3.9646E+00    1.46     3.9771E+00    1.45
  Misc. 3 .............. 6.4557E+00    2.39     6.5246E+00    2.38
  Misc. 4 .............. 1.1930E+00    0.44     1.2066E+00    0.44
    Timestep Init ...... 9.6249E-01    0.36     9.6129E-01    0.35
    Apply Loads ........ 1.7802E-01    0.07     1.8855E-01    0.07
  ----------------------------------------------------------------
  T o t a l s            2.7066E+02  100.00     2.7423E+02  100.00

 Problem time       =    6.0000E-05
 Problem cycle      =     53892
 Total CPU time     =       271 seconds (   0 hours  4 minutes 31 seconds)
 CPU time per zone cycle  =        432.272 nanoseconds
 Clock time per zone cycle=        436.640 nanoseconds

 Parallel execution with      4 MPP proc
 NLQ used/max                64/    64

  C P U   T i m i n g   i n f o r m a t i o n

  Processor   Hostname                              CPU/Avg_CPU  CPU(seconds)
  ---------------------------------------------------------------------------
  #       0   compute-0-0                               0.97977   2.6524E+02
  #       1   compute-0-0                               1.00647   2.7247E+02
  #       2   compute-0-0                               1.00644   2.7246E+02
  #       3   compute-0-0                               1.00732   2.7270E+02
  ---------------------------------------------------------------------------
  T o t a l s                                                     1.0829E+03


 Start time   04/08/2022 14:23:04  
 End time     04/08/2022 14:27:38  
 Elapsed time     274 seconds for   53892 cycles using     4 MPP procs
             (      0 hour   4 minutes 34 seconds)

 N o r m a l    t e r m i n a t i o n                          04/08/22 14:27:38
   53892 t 6.0000E-05 dt 1.23E-09 flush i/o buffers            04/08/22 14:27:38
