      Date: 04/08/2022      Time: 14:23:04  

     ___________________________________________________
     |                                                 |
     |  Livermore Software Technology, LLC             |
     |                                                 |
     |  7374 Las Positas Road                          |
     |  Livermore, CA 94551                            |
     |  Tel: (925) 449-2500  Fax: (925) 449-2507       |
     |  www.lstc.com                                   |
     |_________________________________________________|
     |                                                 |
     |  LS-DYNA, A Program for Nonlinear Dynamic       |
     |  Analysis of Structures in Three Dimensions     |
     |  Version : mpp d R12.0.0   Date: 06/19/2020     |
     |  Revision: 148931          Time: 17:26:40       |
     |                                                 |
     |  Features enabled in this version:              |
     |    Distributed Memory Parallel                  |
     |    CESE CHEMISTRY EM ICFD STOCHASTIC_PARTICLES  |
     |    FFTW (multi-dimensional FFTW Library)        |
     |    ANSYS License (ANSYS202)                     |
     |    BigID  option                                |
     |                                                 |
     |  Licensed to:                                   |
     |  Issued by  : Pascale.SaneGuttin_02092022       |
     |                                                 |
     |  Platform   : Intel-MPI 2018 Xeon64             |
     |  OS Level   : Linux CentOS 6.5 uom              |
     |  Compiler   : Intel Fortran Compiler 16.0 AVX-2 |
     |  Hostname   : compute-0-0                       |
     |  Precision  : Double precision (I8R8)           |
     |  SVN Version: 148978                            |
     |                                                 |
     |  Unauthorized use infringes LST copyrights      |
     |_________________________________________________|


 Input file: DynaOpt.key                                                                     

 The native file format       : 64-bit small endian

 LS-DYNA will perform a structural only analysis 

 allocating  memory to   100000000 d     1985258 hex ownership chunk
 contracting memory to           7 d     1991046 material sort chunk
 expanding   memory to          12 d     2056941 nodal force sharing lists 1
 expanding   memory to          18 d     2037561 mat scratch
 expanding   memory to          19 d     3109281 tied nodes scratch
 expanding   memory to          22 d     3109281 tied node scratch
 contracting memory to          18 d     3109281 nodal rigid body scratch
 expanding   memory to        1298 d     3109281 DES sld2des scratch
 expanding   memory to       19476 d     3109281 DES sld2des scratch
 contracting memory to        2450 d     3109281 DES sld2des scratch
 contracting memory to          18 d     3109281 spring/damper scratch
 contracting memory to           1 d     2099371 Performing Decomposition -- Phase 3
 LS-DYNA keyword deck by LS-PrePost                                      
                         ls-dyna mpp.148931 d           date 06/19/2020
 expanding   memory to        4305 d     2099371 material, node and element data
 expanding   memory to        4399 d     2099390 mat add general damage 0
 expanding   memory to        4459 d     2099390 material added airbag porosity leakage 
 expanding   memory to        4477 d     2099390 material properties
 expanding   memory to        4495 d     2139371 element data for composite material
 expanding   memory to        4510 d     2479456 gradient of damage data
 expanding   memory to       17684 d     2522875 user control for contact interfaces
 contracting memory to       17670 d     2522875 thermal expansion 0
 expanding   memory to       17676 d     2522875 state of charge expansion 0
 expanding   memory to       17678 d     2522875 cross-sectional force definitions 0
 expanding   memory to       27672 d     2522911 temp index array for node sorting
 contracting memory to       17678 d     2522911 just because?
 expanding   memory to       20572 d     2542917 arbitrary element numbering input
 contracting memory to       17698 d    27201963 spc cards
 contracting memory to       17685 d    27201963 d3thdt storage
 expanding   memory to       17686 d    27291086 process element material data
 expanding   memory to       19687 d    27291080 load curve data
 contracting memory to       17693 d    27291080 user_define_loading_set
 expanding   memory to       17893 d    27291080 regularize time history data
 contracting memory to       17697 d    27291080 *DEFINE_ELEMENT_DEATH
 expanding   memory to       17952 d    27271999 contact interfaces
 expanding   memory to       38940 d    27271999 implicit contact 1
 expanding   memory to       62054 d    27271999 implicit contact 2
 contracting memory to       18952 d    27540854 contact segment data 1
 expanding   memory to       72086 d    27793400 contact segment data 3
 expanding   memory to      164766 d    27665812 read contacts, eroding check
 expanding   memory to      254415 d    27665812 eroding neighbors 2
 expanding   memory to      274674 d    27665812 eroding neighbors
 contracting memory to      112604 d    28115534 contact definition
 expanding   memory to      112610 d    28265504 contact history
 expanding   memory to      112664 d    28348005 rigid body
 expanding   memory to      112682 d    28348619 rbe2 scratch
 contracting memory to      112668 d    28411533 contact friction
 expanding   memory to      112758 d    28411539 joints
 expanding   memory to      114818 d    28411539 de sld2des
 expanding   memory to      114858 d    28420221 discrete elements regions
 expanding   memory to      114958 d    28625949 rigid bodies for disp. termination
 
 *** Warning 40859 (SOL+859)
     Cannot find elements of slave segment of interface 2
 deleted segment ID          n1          n2          n3          n4
       1 310652 310652 310652 310652
       2 310656 310656 310656 310656
       3 310659 310659 310659 310659
       4 310661 310661 310661 310661
       5 310662 310662 310662 310662
       6 310664 310664 310664 310664
       7 310667 310667 310667 310667
       8 310678 310678 310678 310678
       9 310680 310680 310680 310680
       10 310683 310683 310683 310683
       11 310696 310696 310696 310696
       12 310700 310700 310700 310700
       13 310703 310703 310703 310703
       14 310705 310705 310705 310705
       15 310706 310706 310706 310706
       16 310708 310708 310708 310708
       17 310711 310711 310711 310711
       18 310733 310733 310733 310733
       19 310737 310737 310737 310737
       20 310740 310740 310740 310740
       21 310742 310742 310742 310742
       22 310743 310743 310743 310743
       23 310745 310745 310745 310745
       24 310747 310747 310747 310747
       25 310756 310756 310756 310756
       26 310769 310769 310769 310769
       27 310773 310773 310773 310773
       28 310776 310776 310776 310776
       29 310778 310778 310778 310778
       30 310779 310779 310779 310779
       31 310781 310781 310781 310781
       32 310783 310783 310783 310783
       33 310784 310784 310784 310784
       34 310792 310792 310792 310792
       35 310793 310793 310793 310793
       36 310795 310795 310795 310795
       37 310797 310797 310797 310797
       38 310798 310798 310798 310798
       39 310811 310811 310811 310811
       40 310813 310813 310813 310813
       41 310816 310816 310816 310816
       42 310818 310818 310818 310818
       43 310819 310819 310819 310819
       44 310821 310821 310821 310821
       45 310823 310823 310823 310823
       46 310824 310824 310824 310824
       47 310826 310826 310826 310826
       48 310833 310833 310833 310833
       49 310848 310848 310848 310848
       50 310855 310855 310855 310855
       51 310857 310857 310857 310857
       52 310858 310858 310858 310858
       53 310860 310860 310860 310860
       54 310862 310862 310862 310862
       55 310863 310863 310863 310863
       56 310865 310865 310865 310865
       57 310872 310872 310872 310872
       58 310873 310873 310873 310873
       59 310886 310886 310886 310886
       60 310893 310893 310893 310893
       61 310895 310895 310895 310895
       62 310896 310896 310896 310896
       63 310898 310898 310898 310898
       64 310900 310900 310900 310900
       65 310901 310901 310901 310901
       66 310903 310903 310903 310903
       67 310910 310910 310910 310910
       68 310923 310923 310923 310923
       69 310930 310930 310930 310930
       70 310932 310932 310932 310932
       71 310933 310933 310933 310933
       72 310935 310935 310935 310935
       73 310937 310937 310937 310937
       74 310938 310938 310938 310938
       75 310940 310940 310940 310940
       76 310947 310947 310947 310947
       77 310960 310960 310960 310960
       78 310967 310967 310967 310967
       79 310969 310969 310969 310969
       80 310970 310970 310970 310970
       81 310972 310972 310972 310972
       82 310974 310974 310974 310974
       83 310975 310975 310975 310975
       84 310977 310977 310977 310977
       85 310984 310984 310984 310984
       86 310998 310998 310998 310998
       87 311005 311005 311005 311005
       88 311007 311007 311007 311007
       89 311008 311008 311008 311008
       90 311010 311010 311010 311010
       91 311012 311012 311012 311012
       92 311013 311013 311013 311013
       93 311015 311015 311015 311015
       94 311022 311022 311022 311022
       95 311035 311035 311035 311035
       96 311042 311042 311042 311042
       97 311044 311044 311044 311044
       98 311045 311045 311045 311045
       99 311047 311047 311047 311047
       100 311049 311049 311049 311049
       101 311050 311050 311050 311050
       102 311052 311052 311052 311052
       103 311059 311059 311059 311059
       104 311073 311073 311073 311073
       105 311080 311080 311080 311080
       106 311082 311082 311082 311082
       107 311083 311083 311083 311083
       108 311085 311085 311085 311085
       109 311087 311087 311087 311087
       110 311088 311088 311088 311088
       111 311090 311090 311090 311090
       112 311097 311097 311097 311097
       113 311109 311109 311109 311109
       114 311116 311116 311116 311116
       115 311118 311118 311118 311118
       116 311119 311119 311119 311119
       117 311121 311121 311121 311121
       118 311123 311123 311123 311123
       119 311124 311124 311124 311124
       120 311126 311126 311126 311126
       121 311133 311133 311133 311133
       122 311135 311135 311135 311135
       123 311146 311146 311146 311146
       124 311153 311153 311153 311153
       125 311155 311155 311155 311155
       126 311156 311156 311156 311156
       127 311158 311158 311158 311158
       128 311160 311160 311160 311160
       129 311161 311161 311161 311161
       130 311163 311163 311163 311163
       131 311170 311170 311170 311170
       132 311174 311174 311174 311174
       133 311186 311186 311186 311186
       134 311193 311193 311193 311193
       135 311195 311195 311195 311195
       136 311196 311196 311196 311196
       137 311198 311198 311198 311198
       138 311200 311200 311200 311200
       139 311201 311201 311201 311201
       140 311203 311203 311203 311203
       141 311210 311210 311210 311210
       142 311211 311211 311211 311211
       143 311212 311212 311212 311212
       144 311213 311213 311213 311213
       145 311214 311214 311214 311214
       146 311216 311216 311216 311216
       147 311225 311225 311225 311225
       148 311232 311232 311232 311232
       149 311234 311234 311234 311234
       150 311235 311235 311235 311235
       151 311237 311237 311237 311237
       152 311239 311239 311239 311239
       153 311240 311240 311240 311240
       154 311242 311242 311242 311242
       155 311249 311249 311249 311249
       156 311254 311254 311254 311254
       157 311258 311258 311258 311258
       158 311260 311260 311260 311260
       159 311266 311266 311266 311266
       160 311273 311273 311273 311273
       161 311275 311275 311275 311275
       162 311276 311276 311276 311276
       163 311278 311278 311278 311278
       164 311280 311280 311280 311280
       165 311281 311281 311281 311281
       166 311283 311283 311283 311283
       167 311290 311290 311290 311290
       168 311291 311291 311291 311291
       169 311294 311294 311294 311294
       170 311295 311295 311295 311295
       171 311300 311300 311300 311300
       172 311301 311301 311301 311301
       173 311308 311308 311308 311308
       174 311314 311314 311314 311314
       175 311316 311316 311316 311316
       176 311317 311317 311317 311317
       177 311319 311319 311319 311319
       178 311321 311321 311321 311321
       179 311322 311322 311322 311322
       180 311324 311324 311324 311324
       181 311331 311331 311331 311331
       182 311334 311334 311334 311334
       183 311339 311339 311339 311339
       184 311341 311341 311341 311341
       185 311347 311347 311347 311347
       186 311353 311353 311353 311353
       187 311355 311355 311355 311355
       188 311356 311356 311356 311356
       189 311359 311359 311359 311359
       190 311360 311360 311360 311360
       191 311362 311362 311362 311362
       192 311369 311369 311369 311369
       193 311370 311370 311370 311370
       194 311375 311375 311375 311375
       195 311377 311377 311377 311377
       196 311383 311383 311383 311383
       197 311389 311389 311389 311389
       198 311391 311391 311391 311391
       199 311395 311395 311395 311395
       200 311396 311396 311396 311396
       201 311398 311398 311398 311398
       202 311405 311405 311405 311405
       203 311408 311408 311408 311408
       204 311413 311413 311413 311413
       205 311415 311415 311415 311415
       206 311421 311421 311421 311421
       207 311427 311427 311427 311427
       208 311430 311430 311430 311430
       209 311434 311434 311434 311434
       210 311435 311435 311435 311435
       211 311437 311437 311437 311437
       212 311444 311444 311444 311444
       213 311447 311447 311447 311447
       214 311450 311450 311450 311450
       215 311452 311452 311452 311452
       216 311458 311458 311458 311458
       217 311465 311465 311465 311465
       218 311468 311468 311468 311468
       219 311472 311472 311472 311472
       220 311473 311473 311473 311473
       221 311475 311475 311475 311475
       222 311482 311482 311482 311482
       223 311483 311483 311483 311483
       224 311489 311489 311489 311489
       225 311491 311491 311491 311491
       226 311496 311496 311496 311496
       227 311503 311503 311503 311503
       228 311506 311506 311506 311506
       229 311510 311510 311510 311510
       230 311511 311511 311511 311511
       231 311513 311513 311513 311513
       232 311520 311520 311520 311520
       233 311521 311521 311521 311521
       234 311527 311527 311527 311527
       235 311530 311530 311530 311530
       236 311535 311535 311535 311535
       237 311542 311542 311542 311542
       238 311545 311545 311545 311545
       239 311550 311550 311550 311550
       240 311552 311552 311552 311552
       241 311559 311559 311559 311559
       242 311562 311562 311562 311562
       243 311566 311566 311566 311566
       244 311568 311568 311568 311568
       245 311574 311574 311574 311574
       246 311581 311581 311581 311581
       247 311584 311584 311584 311584
       248 311589 311589 311589 311589
       249 311591 311591 311591 311591
       250 311593 311593 311593 311593
       251 311598 311598 311598 311598
       252 311599 311599 311599 311599
       253 311600 311600 311600 311600
       254 311601 311601 311601 311601
       255 311606 311606 311606 311606
       256 311608 311608 311608 311608
       257 311614 311614 311614 311614
       258 311621 311621 311621 311621
       259 311624 311624 311624 311624
       260 311629 311629 311629 311629
       261 311631 311631 311631 311631
       262 311633 311633 311633 311633
       263 311638 311638 311638 311638
       264 311644 311644 311644 311644
       265 311647 311647 311647 311647
       266 311653 311653 311653 311653
       267 311660 311660 311660 311660
       268 311663 311663 311663 311663
       269 311668 311668 311668 311668
       270 311670 311670 311670 311670
       271 311672 311672 311672 311672
       272 311677 311677 311677 311677
       273 311682 311682 311682 311682
       274 311684 311684 311684 311684
       275 311690 311690 311690 311690
       276 311697 311697 311697 311697
       277 311700 311700 311700 311700
       278 311705 311705 311705 311705
       279 311707 311707 311707 311707
       280 311709 311709 311709 311709
       281 311714 311714 311714 311714
       282 311716 311716 311716 311716
       283 311723 311723 311723 311723
       284 311725 311725 311725 311725
       285 311731 311731 311731 311731
       286 311738 311738 311738 311738
       287 311741 311741 311741 311741
       288 311746 311746 311746 311746
       289 311748 311748 311748 311748
       290 311750 311750 311750 311750
       291 311755 311755 311755 311755
       292 311760 311760 311760 311760
       293 311762 311762 311762 311762
       294 311768 311768 311768 311768
       295 311775 311775 311775 311775
       296 311778 311778 311778 311778
       297 311783 311783 311783 311783
       298 311785 311785 311785 311785
       299 311787 311787 311787 311787
       300 311792 311792 311792 311792
       301 311794 311794 311794 311794
       302 311796 311796 311796 311796
       303 311798 311798 311798 311798
       304 311804 311804 311804 311804
       305 311811 311811 311811 311811
       306 311819 311819 311819 311819
       307 311821 311821 311821 311821
       308 311823 311823 311823 311823
       309 311828 311828 311828 311828
       310 311829 311829 311829 311829
       311 311830 311830 311830 311830
       312 311832 311832 311832 311832
       313 311835 311835 311835 311835
       314 311837 311837 311837 311837
       315 311838 311838 311838 311838
       316 311843 311843 311843 311843
       317 311850 311850 311850 311850
       318 311858 311858 311858 311858
       319 311860 311860 311860 311860
       320 311862 311862 311862 311862
       321 311867 311867 311867 311867
       322 311871 311871 311871 311871
       323 311875 311875 311875 311875
       324 311877 311877 311877 311877
       325 311883 311883 311883 311883
       326 311890 311890 311890 311890
       327 311898 311898 311898 311898
       328 311900 311900 311900 311900
       329 311902 311902 311902 311902
       330 311907 311907 311907 311907
       331 311908 311908 311908 311908
       332 311909 311909 311909 311909
       333 311912 311912 311912 311912
       334 311914 311914 311914 311914
       335 311920 311920 311920 311920
       336 311927 311927 311927 311927
       337 311935 311935 311935 311935
       338 311937 311937 311937 311937
       339 311939 311939 311939 311939
       340 311941 311941 311941 311941
       341 311944 311944 311944 311944
       342 311951 311951 311951 311951
       343 311953 311953 311953 311953
       344 311965 311965 311965 311965
       345 311973 311973 311973 311973
       346 311975 311975 311975 311975
       347 311977 311977 311977 311977
       348 311979 311979 311979 311979
       349 311982 311982 311982 311982
       350 311984 311984 311984 311984
       351 311989 311989 311989 311989
       352 311991 311991 311991 311991
       353 312004 312004 312004 312004
       354 312012 312012 312012 312012
       355 312014 312014 312014 312014
       356 312016 312016 312016 312016
       357 312018 312018 312018 312018
       358 312021 312021 312021 312021
       359 312022 312022 312022 312022
       360 312027 312027 312027 312027
       361 312029 312029 312029 312029
       362 312041 312041 312041 312041
       363 312049 312049 312049 312049
       364 312051 312051 312051 312051
       365 312053 312053 312053 312053
       366 312055 312055 312055 312055
       367 312058 312058 312058 312058
       368 312059 312059 312059 312059
       369 312060 312060 312060 312060
       370 312063 312063 312063 312063
       371 312065 312065 312065 312065
       372 312078 312078 312078 312078
       373 312086 312086 312086 312086
       374 312088 312088 312088 312088
       375 312090 312090 312090 312090
       376 312092 312092 312092 312092
       377 312095 312095 312095 312095
       378 312098 312098 312098 312098
       379 312100 312100 312100 312100
       380 312101 312101 312101 312101
       381 312104 312104 312104 312104
       382 312118 312118 312118 312118
       383 312126 312126 312126 312126
       384 312128 312128 312128 312128
       385 312130 312130 312130 312130
       386 312132 312132 312132 312132
       387 312135 312135 312135 312135
       388 312136 312136 312136 312136
       389 312139 312139 312139 312139
       390 312141 312141 312141 312141
       391 312162 312162 312162 312162
       392 312164 312164 312164 312164
       393 312166 312166 312166 312166
       394 312168 312168 312168 312168
       395 312171 312171 312171 312171
       396 312172 312172 312172 312172
       397 312174 312174 312174 312174
       398 312177 312177 312177 312177
       399 312179 312179 312179 312179
       400 312199 312199 312199 312199
       401 312201 312201 312201 312201
       402 312203 312203 312203 312203
       403 312205 312205 312205 312205
       404 312208 312208 312208 312208
       405 312210 312210 312210 312210
       406 312213 312213 312213 312213
       407 312215 312215 312215 312215
       408 312236 312236 312236 312236
       409 312238 312238 312238 312238
       410 312240 312240 312240 312240
       411 312242 312242 312242 312242
       412 312245 312245 312245 312245
       413 312250 312250 312250 312250
       414 312252 312252 312252 312252
       415 312272 312272 312272 312272
       416 312274 312274 312274 312274
       417 312276 312276 312276 312276
       418 312278 312278 312278 312278
       419 312281 312281 312281 312281
       420 312286 312286 312286 312286
       421 312288 312288 312288 312288
       422 312308 312308 312308 312308
       423 312310 312310 312310 312310
       424 312312 312312 312312 312312
       425 312314 312314 312314 312314
       426 312317 312317 312317 312317
       427 312323 312323 312323 312323
       428 312325 312325 312325 312325
       429 312345 312345 312345 312345
       430 312347 312347 312347 312347
       431 312349 312349 312349 312349
       432 312351 312351 312351 312351
       433 312354 312354 312354 312354
       434 312357 312357 312357 312357
       435 312359 312359 312359 312359
       436 312380 312380 312380 312380
       437 312382 312382 312382 312382
       438 312384 312384 312384 312384
       439 312386 312386 312386 312386
       440 312389 312389 312389 312389
       441 312391 312391 312391 312391
       442 312392 312392 312392 312392
       443 312393 312393 312393 312393
       444 312396 312396 312396 312396
       445 312398 312398 312398 312398
       446 312419 312419 312419 312419
       447 312421 312421 312421 312421
       448 312423 312423 312423 312423
       449 312425 312425 312425 312425
       450 312428 312428 312428 312428
       451 312429 312429 312429 312429
       452 312430 312430 312430 312430
       453 312431 312431 312431 312431
       454 312435 312435 312435 312435
       455 312437 312437 312437 312437
       456 312442 312442 312442 312442
       457 312457 312457 312457 312457
       458 312459 312459 312459 312459
       459 312461 312461 312461 312461
       460 312463 312463 312463 312463
       461 312466 312466 312466 312466
       462 312468 312468 312468 312468
       463 312469 312469 312469 312469
       464 312470 312470 312470 312470
       465 312473 312473 312473 312473
       466 312475 312475 312475 312475
       467 312496 312496 312496 312496
       468 312498 312498 312498 312498
       469 312500 312500 312500 312500
       470 312502 312502 312502 312502
       471 312505 312505 312505 312505
       472 312507 312507 312507 312507
       473 312510 312510 312510 312510
       474 312512 312512 312512 312512
       475 312533 312533 312533 312533
       476 312535 312535 312535 312535
       477 312537 312537 312537 312537
       478 312539 312539 312539 312539
       479 312542 312542 312542 312542
       480 312544 312544 312544 312544
       481 312546 312546 312546 312546
       482 312549 312549 312549 312549
       483 312551 312551 312551 312551
       484 312572 312572 312572 312572
       485 312574 312574 312574 312574
       486 312576 312576 312576 312576
       487 312578 312578 312578 312578
       488 312581 312581 312581 312581
       489 312582 312582 312582 312582
       490 312585 312585 312585 312585
       491 312587 312587 312587 312587
       492 312608 312608 312608 312608
       493 312610 312610 312610 312610
       494 312612 312612 312612 312612
       495 312613 312613 312613 312613
       496 312614 312614 312614 312614
       497 312617 312617 312617 312617
       498 312618 312618 312618 312618
       499 312621 312621 312621 312621
       500 312624 312624 312624 312624
       501 312626 312626 312626 312626
       502 312647 312647 312647 312647
       503 312649 312649 312649 312649
       504 312651 312651 312651 312651
       505 312652 312652 312652 312652
       506 312653 312653 312653 312653
       507 312655 312655 312655 312655
       508 312659 312659 312659 312659
       509 312661 312661 312661 312661
       510 312682 312682 312682 312682
       511 312684 312684 312684 312684
       512 312686 312686 312686 312686
       513 312687 312687 312687 312687
       514 312688 312688 312688 312688
       515 312690 312690 312690 312690
       516 312691 312691 312691 312691
       517 312694 312694 312694 312694
       518 312696 312696 312696 312696
       519 312717 312717 312717 312717
       520 312719 312719 312719 312719
       521 312721 312721 312721 312721
       522 312722 312722 312722 312722
       523 312723 312723 312723 312723
       524 312725 312725 312725 312725
       525 312727 312727 312727 312727
       526 312729 312729 312729 312729
       527 312732 312732 312732 312732
       528 312733 312733 312733 312733
       529 312754 312754 312754 312754
       530 312756 312756 312756 312756
       531 312758 312758 312758 312758
       532 312759 312759 312759 312759
       533 312760 312760 312760 312760
       534 312762 312762 312762 312762
       535 312763 312763 312763 312763
       536 312768 312768 312768 312768
       537 312770 312770 312770 312770
       538 312790 312790 312790 312790
       539 312792 312792 312792 312792
       540 312794 312794 312794 312794
       541 312795 312795 312795 312795
       542 312796 312796 312796 312796
       543 312799 312799 312799 312799
       544 312804 312804 312804 312804
       545 312806 312806 312806 312806
       546 312827 312827 312827 312827
       547 312829 312829 312829 312829
       548 312831 312831 312831 312831
       549 312832 312832 312832 312832
       550 312833 312833 312833 312833
       551 312836 312836 312836 312836
       552 312843 312843 312843 312843
       553 312845 312845 312845 312845
       554 312865 312865 312865 312865
       555 312867 312867 312867 312867
       556 312869 312869 312869 312869
       557 312870 312870 312870 312870
       558 312871 312871 312871 312871
       559 312874 312874 312874 312874
       560 312878 312878 312878 312878
       561 312880 312880 312880 312880
       562 312901 312901 312901 312901
       563 312903 312903 312903 312903
       564 312905 312905 312905 312905
       565 312906 312906 312906 312906
       566 312907 312907 312907 312907
       567 312910 312910 312910 312910
       568 312917 312917 312917 312917
       569 312919 312919 312919 312919
       570 312940 312940 312940 312940
       571 312942 312942 312942 312942
       572 312944 312944 312944 312944
       573 312945 312945 312945 312945
       574 312946 312946 312946 312946
       575 312949 312949 312949 312949
       576 312950 312950 312950 312950
       577 312951 312951 312951 312951
       578 312957 312957 312957 312957
       579 312959 312959 312959 312959
       580 312980 312980 312980 312980
       581 312982 312982 312982 312982
       582 312984 312984 312984 312984
       583 312985 312985 312985 312985
       584 312986 312986 312986 312986
       585 312989 312989 312989 312989
       586 312992 312992 312992 312992
       587 312995 312995 312995 312995
       588 313017 313017 313017 313017
       589 313019 313019 313019 313019
       590 313021 313021 313021 313021
       591 313022 313022 313022 313022
       592 313023 313023 313023 313023
       593 313026 313026 313026 313026
       594 313030 313030 313030 313030
       595 313032 313032 313032 313032
       596 313033 313033 313033 313033
       597 313034 313034 313034 313034
       598 313057 313057 313057 313057
       599 313059 313059 313059 313059
       600 313061 313061 313061 313061
       601 313062 313062 313062 313062
       602 313063 313063 313063 313063
       603 313066 313066 313066 313066
       604 313069 313069 313069 313069
       605 313070 313070 313070 313070
       606 313071 313071 313071 313071
       607 313072 313072 313072 313072
       608 313073 313073 313073 313073
       609 313074 313074 313074 313074
       610 313098 313098 313098 313098
       611 313099 313099 313099 313099
       612 313101 313101 313101 313101
       613 313102 313102 313102 313102
       614 313103 313103 313103 313103
       615 313106 313106 313106 313106
       616 313110 313110 313110 313110
       617 313111 313111 313111 313111
       618 313134 313134 313134 313134
       619 313136 313136 313136 313136
       620 313138 313138 313138 313138
       621 313139 313139 313139 313139
       622 313140 313140 313140 313140
       623 313143 313143 313143 313143
       624 313145 313145 313145 313145
       625 313146 313146 313146 313146
       626 313148 313148 313148 313148
       627 313149 313149 313149 313149
       628 313173 313173 313173 313173
       629 313175 313175 313175 313175
       630 313177 313177 313177 313177
       631 313178 313178 313178 313178
       632 313179 313179 313179 313179
       633 313182 313182 313182 313182
       634 313186 313186 313186 313186
       635 313187 313187 313187 313187
       636 313211 313211 313211 313211
       637 313213 313213 313213 313213
       638 313215 313215 313215 313215
       639 313216 313216 313216 313216
       640 313217 313217 313217 313217
       641 313220 313220 313220 313220
       642 313222 313222 313222 313222
       643 313223 313223 313223 313223
       644 313247 313247 313247 313247
       645 313249 313249 313249 313249
       646 313250 313250 313250 313250
       647 313251 313251 313251 313251
       648 313252 313252 313252 313252
       649 313255 313255 313255 313255
       650 313256 313256 313256 313256
       651 313258 313258 313258 313258
       652 313259 313259 313259 313259
       653 313282 313282 313282 313282
       654 313284 313284 313284 313284
       655 313286 313286 313286 313286
       656 313287 313287 313287 313287
       657 313288 313288 313288 313288
       658 313291 313291 313291 313291
       659 313293 313293 313293 313293
       660 313294 313294 313294 313294
       661 313295 313295 313295 313295
       662 313319 313319 313319 313319
       663 313321 313321 313321 313321
       664 313323 313323 313323 313323
       665 313324 313324 313324 313324
       666 313325 313325 313325 313325
       667 313328 313328 313328 313328
       668 313329 313329 313329 313329
       669 313330 313330 313330 313330
       670 313331 313331 313331 313331
       671 313355 313355 313355 313355
       672 313357 313357 313357 313357
       673 313359 313359 313359 313359
       674 313360 313360 313360 313360
       675 313361 313361 313361 313361
       676 313364 313364 313364 313364
       677 313367 313367 313367 313367
       678 313368 313368 313368 313368
       679 313369 313369 313369 313369
       680 313393 313393 313393 313393
       681 313395 313395 313395 313395
       682 313397 313397 313397 313397
       683 313398 313398 313398 313398
       684 313399 313399 313399 313399
       685 313402 313402 313402 313402
       686 313403 313403 313403 313403
       687 313405 313405 313405 313405
       688 313406 313406 313406 313406
       689 313407 313407 313407 313407
       690 313430 313430 313430 313430
       691 313432 313432 313432 313432
       692 313434 313434 313434 313434
       693 313435 313435 313435 313435
       694 313436 313436 313436 313436
       695 313439 313439 313439 313439
       696 313443 313443 313443 313443
       697 313447 313447 313447 313447
       698 313448 313448 313448 313448
       699 313449 313449 313449 313449
       700 313472 313472 313472 313472
       701 313474 313474 313474 313474
       702 313476 313476 313476 313476
       703 313477 313477 313477 313477
       704 313478 313478 313478 313478
       705 313481 313481 313481 313481
       706 313483 313483 313483 313483
       707 313486 313486 313486 313486
       708 313487 313487 313487 313487
       709 313488 313488 313488 313488
       710 313511 313511 313511 313511
       711 313513 313513 313513 313513
       712 313515 313515 313515 313515
       713 313516 313516 313516 313516
       714 313517 313517 313517 313517
       715 313520 313520 313520 313520
       716 313521 313521 313521 313521
       717 313524 313524 313524 313524
       718 313525 313525 313525 313525
       719 313526 313526 313526 313526
       720 313546 313546 313546 313546
       721 313548 313548 313548 313548
       722 313550 313550 313550 313550
       723 313551 313551 313551 313551
       724 313552 313552 313552 313552
       725 313555 313555 313555 313555
       726 313556 313556 313556 313556
       727 313559 313559 313559 313559
       728 313560 313560 313560 313560
       729 313561 313561 313561 313561
       730 313569 313569 313569 313569
       731 313571 313571 313571 313571
       732 313585 313585 313585 313585
       733 313587 313587 313587 313587
       734 313589 313589 313589 313589
       735 313590 313590 313590 313590
       736 313591 313591 313591 313591
       737 313594 313594 313594 313594
       738 313595 313595 313595 313595
       739 313596 313596 313596 313596
       740 313597 313597 313597 313597
       741 313598 313598 313598 313598
       742 313606 313606 313606 313606
       743 313607 313607 313607 313607
       744 313622 313622 313622 313622
       745 313624 313624 313624 313624
       746 313626 313626 313626 313626
       747 313627 313627 313627 313627
       748 313628 313628 313628 313628
       749 313631 313631 313631 313631
       750 313632 313632 313632 313632
       751 313633 313633 313633 313633
       752 313636 313636 313636 313636
       753 313638 313638 313638 313638
       754 313639 313639 313639 313639
       755 313641 313641 313641 313641
       756 313648 313648 313648 313648
       757 313649 313649 313649 313649
       758 313664 313664 313664 313664
       759 313666 313666 313666 313666
       760 313668 313668 313668 313668
       761 313669 313669 313669 313669
       762 313670 313670 313670 313670
       763 313673 313673 313673 313673
       764 313674 313674 313674 313674
       765 313676 313676 313676 313676
       766 313677 313677 313677 313677
       767 313678 313678 313678 313678
       768 313686 313686 313686 313686
       769 313688 313688 313688 313688
       770 313702 313702 313702 313702
       771 313704 313704 313704 313704
       772 313706 313706 313706 313706
       773 313707 313707 313707 313707
       774 313708 313708 313708 313708
       775 313711 313711 313711 313711
       776 313713 313713 313713 313713
       777 313715 313715 313715 313715
       778 313716 313716 313716 313716
       779 313717 313717 313717 313717
       780 313725 313725 313725 313725
       781 313727 313727 313727 313727
       782 313729 313729 313729 313729
       783 313740 313740 313740 313740
       784 313742 313742 313742 313742
       785 313744 313744 313744 313744
       786 313745 313745 313745 313745
       787 313746 313746 313746 313746
       788 313749 313749 313749 313749
       789 313750 313750 313750 313750
       790 313751 313751 313751 313751
       791 313753 313753 313753 313753
       792 313757 313757 313757 313757
       793 313758 313758 313758 313758
       794 313759 313759 313759 313759
       795 313765 313765 313765 313765
       796 313769 313769 313769 313769
       797 313770 313770 313770 313770
       798 313782 313782 313782 313782
       799 313784 313784 313784 313784
       800 313786 313786 313786 313786
       801 313787 313787 313787 313787
       802 313788 313788 313788 313788
       803 313791 313791 313791 313791
       804 313792 313792 313792 313792
       805 313794 313794 313794 313794
       806 313796 313796 313796 313796
       807 313797 313797 313797 313797
       808 313798 313798 313798 313798
       809 313804 313804 313804 313804
       810 313806 313806 313806 313806
       811 313808 313808 313808 313808
       812 313821 313821 313821 313821
       813 313823 313823 313823 313823
       814 313824 313824 313824 313824
       815 313825 313825 313825 313825
       816 313828 313828 313828 313828
       817 313829 313829 313829 313829
       818 313830 313830 313830 313830
       819 313832 313832 313832 313832
       820 313833 313833 313833 313833
       821 313834 313834 313834 313834
       822 313841 313841 313841 313841
       823 313843 313843 313843 313843
       824 313845 313845 313845 313845
       825 313859 313859 313859 313859
       826 313861 313861 313861 313861
       827 313862 313862 313862 313862
       828 313863 313863 313863 313863
       829 313866 313866 313866 313866
       830 313868 313868 313868 313868
       831 313870 313870 313870 313870
       832 313871 313871 313871 313871
       833 313878 313878 313878 313878
       834 313880 313880 313880 313880
       835 313882 313882 313882 313882
       836 313896 313896 313896 313896
       837 313898 313898 313898 313898
       838 313899 313899 313899 313899
       839 313900 313900 313900 313900
       840 313903 313903 313903 313903
       841 313904 313904 313904 313904
       842 313907 313907 313907 313907
       843 313908 313908 313908 313908
       844 313910 313910 313910 313910
       845 313911 313911 313911 313911
       846 313917 313917 313917 313917
       847 313921 313921 313921 313921
       848 313923 313923 313923 313923
       849 313937 313937 313937 313937
       850 313939 313939 313939 313939
       851 313940 313940 313940 313940
       852 313941 313941 313941 313941
       853 313944 313944 313944 313944
       854 313945 313945 313945 313945
       855 313946 313946 313946 313946
       856 313947 313947 313947 313947
       857 313948 313948 313948 313948
       858 313949 313949 313949 313949
       859 313957 313957 313957 313957
       860 313959 313959 313959 313959
       861 313961 313961 313961 313961
       862 313974 313974 313974 313974
       863 313976 313976 313976 313976
       864 313977 313977 313977 313977
       865 313980 313980 313980 313980
       866 313982 313982 313982 313982
       867 313983 313983 313983 313983
       868 313984 313984 313984 313984
       869 313992 313992 313992 313992
       870 313994 313994 313994 313994
       871 313996 313996 313996 313996
       872 314010 314010 314010 314010
       873 314013 314013 314013 314013
       874 314014 314014 314014 314014
       875 314017 314017 314017 314017
       876 314018 314018 314018 314018
       877 314019 314019 314019 314019
       878 314021 314021 314021 314021
       879 314023 314023 314023 314023
       880 314024 314024 314024 314024
       881 314025 314025 314025 314025
       882 314033 314033 314033 314033
       883 314034 314034 314034 314034
       884 314036 314036 314036 314036
       885 314050 314050 314050 314050
       886 314053 314053 314053 314053
       887 314054 314054 314054 314054
       888 314057 314057 314057 314057
       889 314058 314058 314058 314058
       890 314059 314059 314059 314059
       891 314061 314061 314061 314061
       892 314062 314062 314062 314062
       893 314070 314070 314070 314070
       894 314071 314071 314071 314071
       895 314072 314072 314072 314072
       896 314074 314074 314074 314074
       897 314088 314088 314088 314088
       898 314091 314091 314091 314091
       899 314092 314092 314092 314092
       900 314095 314095 314095 314095
       901 314096 314096 314096 314096
       902 314098 314098 314098 314098
       903 314099 314099 314099 314099
       904 314100 314100 314100 314100
       905 314101 314101 314101 314101
       906 314105 314105 314105 314105
       907 314109 314109 314109 314109
       908 314110 314110 314110 314110
       909 314112 314112 314112 314112
       910 314126 314126 314126 314126
       911 314129 314129 314129 314129
       912 314130 314130 314130 314130
       913 314133 314133 314133 314133
       914 314134 314134 314134 314134
       915 314136 314136 314136 314136
       916 314137 314137 314137 314137
       917 314138 314138 314138 314138
       918 314139 314139 314139 314139
       919 314146 314146 314146 314146
       920 314147 314147 314147 314147
       921 314148 314148 314148 314148
       922 314150 314150 314150 314150
       923 314164 314164 314164 314164
       924 314167 314167 314167 314167
       925 314168 314168 314168 314168
       926 314171 314171 314171 314171
       927 314172 314172 314172 314172
       928 314174 314174 314174 314174
       929 314175 314175 314175 314175
       930 314178 314178 314178 314178
       931 314179 314179 314179 314179
       932 314180 314180 314180 314180
       933 314181 314181 314181 314181
       934 314187 314187 314187 314187
       935 314189 314189 314189 314189
       936 314190 314190 314190 314190
       937 314191 314191 314191 314191
       938 314193 314193 314193 314193
       939 314207 314207 314207 314207
       940 314210 314210 314210 314210
       941 314211 314211 314211 314211
       942 314214 314214 314214 314214
       943 314215 314215 314215 314215
       944 314216 314216 314216 314216
       945 314217 314217 314217 314217
       946 314223 314223 314223 314223
       947 314225 314225 314225 314225
       948 314226 314226 314226 314226
       949 314227 314227 314227 314227
       950 314229 314229 314229 314229
       951 314243 314243 314243 314243
       952 314246 314246 314246 314246
       953 314247 314247 314247 314247
       954 314250 314250 314250 314250
       955 314251 314251 314251 314251
       956 314253 314253 314253 314253
       957 314254 314254 314254 314254
       958 314261 314261 314261 314261
       959 314263 314263 314263 314263
       960 314264 314264 314264 314264
       961 314265 314265 314265 314265
       962 314267 314267 314267 314267
       963 314281 314281 314281 314281
       964 314284 314284 314284 314284
       965 314285 314285 314285 314285
       966 314288 314288 314288 314288
       967 314290 314290 314290 314290
       968 314292 314292 314292 314292
       969 314293 314293 314293 314293
       970 314300 314300 314300 314300
       971 314302 314302 314302 314302
       972 314303 314303 314303 314303
       973 314304 314304 314304 314304
       974 314306 314306 314306 314306
       975 314313 314313 314313 314313
       976 314320 314320 314320 314320
       977 314323 314323 314323 314323
       978 314324 314324 314324 314324
       979 314327 314327 314327 314327
       980 314328 314328 314328 314328
       981 314332 314332 314332 314332
       982 314333 314333 314333 314333
       983 314340 314340 314340 314340
       984 314341 314341 314341 314341
       985 314343 314343 314343 314343
       986 314344 314344 314344 314344
       987 314346 314346 314346 314346
       988 314353 314353 314353 314353
       989 314360 314360 314360 314360
       990 314363 314363 314363 314363
       991 314364 314364 314364 314364
       992 314367 314367 314367 314367
       993 314369 314369 314369 314369
       994 314376 314376 314376 314376
       995 314378 314378 314378 314378
       996 314379 314379 314379 314379
       997 314380 314380 314380 314380
       998 314382 314382 314382 314382
       999 314388 314388 314388 314388
       1000 314395 314395 314395 314395
       1001 314398 314398 314398 314398
       1002 314399 314399 314399 314399
       1003 314402 314402 314402 314402
       1004 314403 314403 314403 314403
       1005 314408 314408 314408 314408
       1006 314416 314416 314416 314416
       1007 314418 314418 314418 314418
       1008 314419 314419 314419 314419
       1009 314420 314420 314420 314420
       1010 314422 314422 314422 314422
       1011 314424 314424 314424 314424
       1012 314429 314429 314429 314429
       1013 314436 314436 314436 314436
       1014 314439 314439 314439 314439
       1015 314440 314440 314440 314440
       1016 314443 314443 314443 314443
       1017 314445 314445 314445 314445
       1018 314452 314452 314452 314452
       1019 314459 314459 314459 314459
       1020 314461 314461 314461 314461
       1021 314462 314462 314462 314462
       1022 314463 314463 314463 314463
       1023 314465 314465 314465 314465
       1024 314467 314467 314467 314467
       1025 314472 314472 314472 314472
       1026 314479 314479 314479 314479
       1027 314482 314482 314482 314482
       1028 314483 314483 314483 314483
       1029 314486 314486 314486 314486
       1030 314487 314487 314487 314487
       1031 314491 314491 314491 314491
       1032 314499 314499 314499 314499
       1033 314501 314501 314501 314501
       1034 314502 314502 314502 314502
       1035 314503 314503 314503 314503
       1036 314505 314505 314505 314505
       1037 314507 314507 314507 314507
       1038 314512 314512 314512 314512
       1039 314519 314519 314519 314519
       1040 314522 314522 314522 314522
       1041 314523 314523 314523 314523
       1042 314526 314526 314526 314526
       1043 314529 314529 314529 314529
       1044 314537 314537 314537 314537
       1045 314539 314539 314539 314539
       1046 314540 314540 314540 314540
       1047 314541 314541 314541 314541
       1048 314543 314543 314543 314543
       1049 314545 314545 314545 314545
       1050 314549 314549 314549 314549
       1051 314556 314556 314556 314556
       1052 314559 314559 314559 314559
       1053 314560 314560 314560 314560
       1054 314563 314563 314563 314563
       1055 314567 314567 314567 314567
       1056 314575 314575 314575 314575
       1057 314577 314577 314577 314577
       1058 314578 314578 314578 314578
       1059 314579 314579 314579 314579
       1060 314581 314581 314581 314581
       1061 314583 314583 314583 314583
       1062 314587 314587 314587 314587
       1063 314594 314594 314594 314594
       1064 314597 314597 314597 314597
       1065 314600 314600 314600 314600
       1066 314603 314603 314603 314603
       1067 314611 314611 314611 314611
       1068 314613 314613 314613 314613
       1069 314614 314614 314614 314614
       1070 314615 314615 314615 314615
       1071 314617 314617 314617 314617
       1072 314619 314619 314619 314619
       1073 314623 314623 314623 314623
       1074 314630 314630 314630 314630
       1075 314633 314633 314633 314633
       1076 314636 314636 314636 314636
       1077 314637 314637 314637 314637
       1078 314641 314641 314641 314641
       1079 314647 314647 314647 314647
       1080 314650 314650 314650 314650
       1081 314651 314651 314651 314651
       1082 314652 314652 314652 314652
       1083 314654 314654 314654 314654
       1084 314656 314656 314656 314656
       1085 314661 314661 314661 314661
       1086 314668 314668 314668 314668
       1087 314671 314671 314671 314671
       1088 314675 314675 314675 314675
       1089 314678 314678 314678 314678
       1090 314685 314685 314685 314685
       1091 314687 314687 314687 314687
       1092 314688 314688 314688 314688
       1093 314690 314690 314690 314690
       1094 314692 314692 314692 314692
       1095 314697 314697 314697 314697
       1096 314704 314704 314704 314704
       1097 314708 314708 314708 314708
       1098 314711 314711 314711 314711
       1099 314715 314715 314715 314715
       1100 314723 314723 314723 314723
       1101 314725 314725 314725 314725
       1102 314726 314726 314726 314726
       1103 314727 314727 314727 314727
       1104 314729 314729 314729 314729
       1105 314731 314731 314731 314731
       1106 314735 314735 314735 314735
       1107 314742 314742 314742 314742
       1108 314745 314745 314745 314745
       1109 314746 314746 314746 314746
       1110 314749 314749 314749 314749
       1111 314750 314750 314750 314750
       1112 314752 314752 314752 314752
       1113 314759 314759 314759 314759
       1114 314760 314760 314760 314760
       1115 314762 314762 314762 314762
       1116 314763 314763 314763 314763
       1117 314765 314765 314765 314765
       1118 314767 314767 314767 314767
       1119 314772 314772 314772 314772
       1120 314779 314779 314779 314779
       1121 314782 314782 314782 314782
       1122 314783 314783 314783 314783
       1123 314786 314786 314786 314786
       1124 314788 314788 314788 314788
       1125 314792 314792 314792 314792
       1126 314795 314795 314795 314795
       1127 314797 314797 314797 314797
       1128 314798 314798 314798 314798
       1129 314799 314799 314799 314799
       1130 314801 314801 314801 314801
       1131 314803 314803 314803 314803
       1132 314808 314808 314808 314808
       1133 314815 314815 314815 314815
       1134 314818 314818 314818 314818
       1135 314819 314819 314819 314819
       1136 314822 314822 314822 314822
       1137 314827 314827 314827 314827
       1138 314831 314831 314831 314831
       1139 314835 314835 314835 314835
       1140 314837 314837 314837 314837
       1141 314838 314838 314838 314838
       1142 314840 314840 314840 314840
       1143 314842 314842 314842 314842
       1144 314847 314847 314847 314847
       1145 314853 314853 314853 314853
       1146 314856 314856 314856 314856
       1147 314857 314857 314857 314857
       1148 314860 314860 314860 314860
       1149 314862 314862 314862 314862
       1150 314866 314866 314866 314866
       1151 314870 314870 314870 314870
       1152 314873 314873 314873 314873
       1153 314874 314874 314874 314874
       1154 314876 314876 314876 314876
       1155 314878 314878 314878 314878
       1156 314883 314883 314883 314883
       1157 314889 314889 314889 314889
       1158 314893 314893 314893 314893
       1159 314896 314896 314896 314896
       1160 314901 314901 314901 314901
       1161 314904 314904 314904 314904
       1162 314908 314908 314908 314908
       1163 314911 314911 314911 314911
       1164 314912 314912 314912 314912
       1165 314914 314914 314914 314914
       1166 314916 314916 314916 314916
       1167 314921 314921 314921 314921
       1168 314924 314924 314924 314924
       1169 314928 314928 314928 314928
       1170 314932 314932 314932 314932
       1171 314935 314935 314935 314935
       1172 314940 314940 314940 314940
       1173 314944 314944 314944 314944
       1174 314948 314948 314948 314948
       1175 314951 314951 314951 314951
       1176 314952 314952 314952 314952
       1177 314954 314954 314954 314954
       1178 314956 314956 314956 314956
       1179 314961 314961 314961 314961
       1180 314964 314964 314964 314964
       1181 314968 314968 314968 314968
       1182 314972 314972 314972 314972
       1183 314975 314975 314975 314975
       1184 314978 314978 314978 314978
       1185 314982 314982 314982 314982
       1186 314986 314986 314986 314986
       1187 314989 314989 314989 314989
       1188 314990 314990 314990 314990
       1189 314992 314992 314992 314992
       1190 314994 314994 314994 314994
       1191 314999 314999 314999 314999
       1192 315002 315002 315002 315002
       1193 315006 315006 315006 315006
       1194 315010 315010 315010 315010
       1195 315013 315013 315013 315013
       1196 315018 315018 315018 315018
       1197 315022 315022 315022 315022
       1198 315025 315025 315025 315025
       1199 315028 315028 315028 315028
       1200 315029 315029 315029 315029
       1201 315031 315031 315031 315031
       1202 315033 315033 315033 315033
       1203 315038 315038 315038 315038
       1204 315041 315041 315041 315041
       1205 315045 315045 315045 315045
       1206 315049 315049 315049 315049
       1207 315052 315052 315052 315052
       1208 315057 315057 315057 315057
       1209 315061 315061 315061 315061
       1210 315065 315065 315065 315065
       1211 315068 315068 315068 315068
       1212 315069 315069 315069 315069
       1213 315071 315071 315071 315071
       1214 315073 315073 315073 315073
       1215 315078 315078 315078 315078
       1216 315081 315081 315081 315081
       1217 315085 315085 315085 315085
       1218 315089 315089 315089 315089
       1219 315092 315092 315092 315092
       1220 315095 315095 315095 315095
       1221 315099 315099 315099 315099
       1222 315103 315103 315103 315103
       1223 315106 315106 315106 315106
       1224 315107 315107 315107 315107
       1225 315108 315108 315108 315108
       1226 315110 315110 315110 315110
       1227 315115 315115 315115 315115
       1228 315118 315118 315118 315118
       1229 315122 315122 315122 315122
       1230 315126 315126 315126 315126
       1231 315129 315129 315129 315129
       1232 315134 315134 315134 315134
       1233 315138 315138 315138 315138
       1234 315141 315141 315141 315141
       1235 315142 315142 315142 315142
       1236 315143 315143 315143 315143
       1237 315144 315144 315144 315144
       1238 315146 315146 315146 315146
       1239 315151 315151 315151 315151
       1240 315154 315154 315154 315154
       1241 315158 315158 315158 315158
       1242 315162 315162 315162 315162
       1243 315165 315165 315165 315165
       1244 315168 315168 315168 315168
       1245 315172 315172 315172 315172
       1246 315176 315176 315176 315176
       1247 315179 315179 315179 315179
       1248 315180 315180 315180 315180
       1249 315181 315181 315181 315181
       1250 315182 315182 315182 315182
       1251 315184 315184 315184 315184
       1252 315189 315189 315189 315189
       1253 315192 315192 315192 315192
       1254 315196 315196 315196 315196
       1255 315200 315200 315200 315200
       1256 315203 315203 315203 315203
       1257 315206 315206 315206 315206
       1258 315210 315210 315210 315210
       1259 315216 315216 315216 315216
       1260 315217 315217 315217 315217
       1261 315218 315218 315218 315218
       1262 315219 315219 315219 315219
       1263 315220 315220 315220 315220
       1264 315222 315222 315222 315222
       1265 315227 315227 315227 315227
       1266 315230 315230 315230 315230
       1267 315234 315234 315234 315234
       1268 315238 315238 315238 315238
       1269 315241 315241 315241 315241
       1270 315243 315243 315243 315243
       1271 315247 315247 315247 315247
       1272 315250 315250 315250 315250
       1273 315253 315253 315253 315253
       1274 315254 315254 315254 315254
       1275 315255 315255 315255 315255
       1276 315256 315256 315256 315256
       1277 315258 315258 315258 315258
       1278 315263 315263 315263 315263
       1279 315266 315266 315266 315266
       1280 315270 315270 315270 315270
       1281 315274 315274 315274 315274
       1282 315277 315277 315277 315277
       1283 315282 315282 315282 315282
       1284 315286 315286 315286 315286
       1285 315290 315290 315290 315290
       1286 315293 315293 315293 315293
       1287 315294 315294 315294 315294
       1288 315295 315295 315295 315295
       1289 315296 315296 315296 315296
       1290 315298 315298 315298 315298
       1291 315303 315303 315303 315303
       1292 315306 315306 315306 315306
       1293 315310 315310 315310 315310
       1294 315314 315314 315314 315314
       1295 315317 315317 315317 315317
       1296 315319 315319 315319 315319
       1297 315323 315323 315323 315323
       1298 315327 315327 315327 315327
       1299 315330 315330 315330 315330
       1300 315331 315331 315331 315331
       1301 315332 315332 315332 315332
       1302 315333 315333 315333 315333
       1303 315335 315335 315335 315335
       1304 315340 315340 315340 315340
       1305 315343 315343 315343 315343
       1306 315347 315347 315347 315347
       1307 315351 315351 315351 315351
       1308 315354 315354 315354 315354
       1309 315357 315357 315357 315357
       1310 315358 315358 315358 315358
       1311 315360 315360 315360 315360
       1312 315364 315364 315364 315364
       1313 315366 315366 315366 315366
       1314 315367 315367 315367 315367
       1315 315368 315368 315368 315368
       1316 315369 315369 315369 315369
       1317 315371 315371 315371 315371
       1318 315376 315376 315376 315376
       1319 315379 315379 315379 315379
       1320 315383 315383 315383 315383
       1321 315387 315387 315387 315387
       1322 315390 315390 315390 315390
       1323 315396 315396 315396 315396
       1324 315397 315397 315397 315397
       1325 315399 315399 315399 315399
       1326 315400 315400 315400 315400
       1327 315404 315404 315404 315404
       1328 315407 315407 315407 315407
       1329 315408 315408 315408 315408
       1330 315409 315409 315409 315409
       1331 315410 315410 315410 315410
       1332 315412 315412 315412 315412
       1333 315417 315417 315417 315417
       1334 315420 315420 315420 315420
       1335 315424 315424 315424 315424
       1336 315428 315428 315428 315428
       1337 315431 315431 315431 315431
       1338 315433 315433 315433 315433
       1339 315435 315435 315435 315435
       1340 315436 315436 315436 315436
       1341 315438 315438 315438 315438
       1342 315439 315439 315439 315439
       1343 315443 315443 315443 315443
       1344 315446 315446 315446 315446
       1345 315447 315447 315447 315447
       1346 315448 315448 315448 315448
       1347 315449 315449 315449 315449
       1348 315451 315451 315451 315451
       1349 315456 315456 315456 315456
       1350 315459 315459 315459 315459
       1351 315463 315463 315463 315463
       1352 315467 315467 315467 315467
       1353 315470 315470 315470 315470
       1354 315472 315472 315472 315472
       1355 315473 315473 315473 315473
       1356 315475 315475 315475 315475
       1357 315476 315476 315476 315476
       1358 315480 315480 315480 315480
       1359 315483 315483 315483 315483
       1360 315484 315484 315484 315484
       1361 315485 315485 315485 315485
       1362 315486 315486 315486 315486
       1363 315488 315488 315488 315488
       1364 315493 315493 315493 315493
       1365 315496 315496 315496 315496
       1366 315500 315500 315500 315500
       1367 315504 315504 315504 315504
       1368 315507 315507 315507 315507
       1369 315508 315508 315508 315508
       1370 315511 315511 315511 315511
       1371 315512 315512 315512 315512
       1372 315514 315514 315514 315514
       1373 315515 315515 315515 315515
       1374 315519 315519 315519 315519
       1375 315522 315522 315522 315522
       1376 315523 315523 315523 315523
       1377 315524 315524 315524 315524
       1378 315525 315525 315525 315525
       1379 315527 315527 315527 315527
       1380 315532 315532 315532 315532
       1381 315535 315535 315535 315535
       1382 315539 315539 315539 315539
       1383 315543 315543 315543 315543
       1384 315546 315546 315546 315546
       1385 315548 315548 315548 315548
       1386 315552 315552 315552 315552
       1387 315554 315554 315554 315554
       1388 315555 315555 315555 315555
       1389 315562 315562 315562 315562
       1390 315563 315563 315563 315563
       1391 315564 315564 315564 315564
       1392 315565 315565 315565 315565
       1393 315567 315567 315567 315567
       1394 315569 315569 315569 315569
       1395 315574 315574 315574 315574
       1396 315578 315578 315578 315578
       1397 315582 315582 315582 315582
       1398 315585 315585 315585 315585
       1399 315591 315591 315591 315591
       1400 315592 315592 315592 315592
       1401 315596 315596 315596 315596
       1402 315599 315599 315599 315599
       1403 315600 315600 315600 315600
       1404 315601 315601 315601 315601
       1405 315602 315602 315602 315602
       1406 315604 315604 315604 315604
       1407 315609 315609 315609 315609
       1408 315612 315612 315612 315612
       1409 315616 315616 315616 315616
       1410 315620 315620 315620 315620
       1411 315623 315623 315623 315623
       1412 315624 315624 315624 315624
       1413 315629 315629 315629 315629
       1414 315630 315630 315630 315630
       1415 315634 315634 315634 315634
       1416 315637 315637 315637 315637
       1417 315638 315638 315638 315638
       1418 315639 315639 315639 315639
       1419 315640 315640 315640 315640
       1420 315642 315642 315642 315642
       1421 315647 315647 315647 315647
       1422 315650 315650 315650 315650
       1423 315654 315654 315654 315654
       1424 315658 315658 315658 315658
       1425 315661 315661 315661 315661
       1426 315664 315664 315664 315664
       1427 315670 315670 315670 315670
       1428 315671 315671 315671 315671
       1429 315675 315675 315675 315675
       1430 315678 315678 315678 315678
       1431 315679 315679 315679 315679
       1432 315680 315680 315680 315680
       1433 315681 315681 315681 315681
       1434 315683 315683 315683 315683
       1435 315688 315688 315688 315688
       1436 315691 315691 315691 315691
       1437 315695 315695 315695 315695
       1438 315699 315699 315699 315699
       1439 315702 315702 315702 315702
       1440 315703 315703 315703 315703
       1441 315704 315704 315704 315704
       1442 315705 315705 315705 315705
       1443 315710 315710 315710 315710
       1444 315711 315711 315711 315711
       1445 315715 315715 315715 315715
       1446 315718 315718 315718 315718
       1447 315719 315719 315719 315719
       1448 315720 315720 315720 315720
       1449 315721 315721 315721 315721
       1450 315723 315723 315723 315723
       1451 315728 315728 315728 315728
       1452 315731 315731 315731 315731
       1453 315735 315735 315735 315735
       1454 315739 315739 315739 315739
       1455 315742 315742 315742 315742
       1456 315747 315747 315747 315747
       1457 315748 315748 315748 315748
       1458 315752 315752 315752 315752
       1459 315755 315755 315755 315755
       1460 315756 315756 315756 315756
       1461 315757 315757 315757 315757
       1462 315758 315758 315758 315758
       1463 315760 315760 315760 315760
       1464 315765 315765 315765 315765
       1465 315768 315768 315768 315768
       1466 315772 315772 315772 315772
       1467 315776 315776 315776 315776
       1468 315779 315779 315779 315779
       1469 315787 315787 315787 315787
       1470 315788 315788 315788 315788
       1471 315792 315792 315792 315792
       1472 315795 315795 315795 315795
       1473 315796 315796 315796 315796
       1474 315797 315797 315797 315797
       1475 315798 315798 315798 315798
       1476 315800 315800 315800 315800
       1477 315805 315805 315805 315805
       1478 315808 315808 315808 315808
       1479 315812 315812 315812 315812
       1480 315816 315816 315816 315816
       1481 315819 315819 315819 315819
       1482 315825 315825 315825 315825
       1483 315826 315826 315826 315826
       1484 315830 315830 315830 315830
       1485 315833 315833 315833 315833
       1486 315834 315834 315834 315834
       1487 315835 315835 315835 315835
       1488 315836 315836 315836 315836
       1489 315838 315838 315838 315838
       1490 315843 315843 315843 315843
       1491 315846 315846 315846 315846
       1492 315850 315850 315850 315850
       1493 315854 315854 315854 315854
       1494 315857 315857 315857 315857
       1495 315858 315858 315858 315858
       1496 315863 315863 315863 315863
       1497 315864 315864 315864 315864
       1498 315868 315868 315868 315868
       1499 315871 315871 315871 315871
       1500 315872 315872 315872 315872
       1501 315873 315873 315873 315873
       1502 315874 315874 315874 315874
       1503 315876 315876 315876 315876
       1504 315881 315881 315881 315881
       1505 315884 315884 315884 315884
       1506 315888 315888 315888 315888
       1507 315892 315892 315892 315892
       1508 315895 315895 315895 315895
       1509 315897 315897 315897 315897
       1510 315898 315898 315898 315898
       1511 315903 315903 315903 315903
       1512 315904 315904 315904 315904
       1513 315908 315908 315908 315908
       1514 315911 315911 315911 315911
       1515 315912 315912 315912 315912
       1516 315913 315913 315913 315913
       1517 315914 315914 315914 315914
       1518 315916 315916 315916 315916
       1519 315921 315921 315921 315921
       1520 315924 315924 315924 315924
       1521 315928 315928 315928 315928
       1522 315932 315932 315932 315932
       1523 315935 315935 315935 315935
       1524 315939 315939 315939 315939
       1525 315940 315940 315940 315940
       1526 315944 315944 315944 315944
       1527 315947 315947 315947 315947
       1528 315948 315948 315948 315948
       1529 315949 315949 315949 315949
       1530 315950 315950 315950 315950
       1531 315952 315952 315952 315952
       1532 315957 315957 315957 315957
       1533 315960 315960 315960 315960
       1534 315964 315964 315964 315964
       1535 315968 315968 315968 315968
       1536 315971 315971 315971 315971
       1537 315972 315972 315972 315972
       1538 315978 315978 315978 315978
       1539 315979 315979 315979 315979
       1540 315983 315983 315983 315983
       1541 315985 315985 315985 315985
       1542 315986 315986 315986 315986
       1543 315987 315987 315987 315987
       1544 315988 315988 315988 315988
       1545 315990 315990 315990 315990
       1546 315995 315995 315995 315995
       1547 315998 315998 315998 315998
       1548 316002 316002 316002 316002
       1549 316006 316006 316006 316006
       1550 316009 316009 316009 316009
       1551 316010 316010 316010 316010
       1552 316013 316013 316013 316013
       1553 316018 316018 316018 316018
       1554 316019 316019 316019 316019
       1555 316023 316023 316023 316023
       1556 316026 316026 316026 316026
       1557 316027 316027 316027 316027
       1558 316028 316028 316028 316028
       1559 316031 316031 316031 316031
       1560 316036 316036 316036 316036
       1561 316039 316039 316039 316039
       1562 316043 316043 316043 316043
       1563 316047 316047 316047 316047
       1564 316050 316050 316050 316050
       1565 316055 316055 316055 316055
       1566 316056 316056 316056 316056
       1567 316063 316063 316063 316063
       1568 316064 316064 316064 316064
       1569 316065 316065 316065 316065
       1570 316066 316066 316066 316066
       1571 316068 316068 316068 316068
       1572 316070 316070 316070 316070
       1573 316073 316073 316073 316073
       1574 316076 316076 316076 316076
       1575 316080 316080 316080 316080
       1576 316084 316084 316084 316084
       1577 316087 316087 316087 316087
       1578 316088 316088 316088 316088
       1579 316089 316089 316089 316089
       1580 316093 316093 316093 316093
       1581 316094 316094 316094 316094
       1582 316095 316095 316095 316095
       1583 316098 316098 316098 316098
       1584 316100 316100 316100 316100
       1585 316101 316101 316101 316101
       1586 316102 316102 316102 316102
       1587 316103 316103 316103 316103
       1588 316105 316105 316105 316105
       1589 316110 316110 316110 316110
       1590 316113 316113 316113 316113
       1591 316117 316117 316117 316117
       1592 316121 316121 316121 316121
       1593 316124 316124 316124 316124
       1594 316125 316125 316125 316125
       1595 316129 316129 316129 316129
       1596 316133 316133 316133 316133
       1597 316134 316134 316134 316134
       1598 316135 316135 316135 316135
       1599 316138 316138 316138 316138
       1600 316139 316139 316139 316139
       1601 316140 316140 316140 316140
       1602 316141 316141 316141 316141
       1603 316142 316142 316142 316142
       1604 316143 316143 316143 316143
       1605 316145 316145 316145 316145
       1606 316150 316150 316150 316150
       1607 316153 316153 316153 316153
       1608 316157 316157 316157 316157
       1609 316161 316161 316161 316161
       1610 316164 316164 316164 316164
       1611 316165 316165 316165 316165
       1612 316170 316170 316170 316170
       1613 316171 316171 316171 316171
       1614 316172 316172 316172 316172
       1615 316176 316176 316176 316176
       1616 316177 316177 316177 316177
       1617 316178 316178 316178 316178
       1618 316179 316179 316179 316179
       1619 316180 316180 316180 316180
       1620 316181 316181 316181 316181
       1621 316183 316183 316183 316183
       1622 316188 316188 316188 316188
       1623 316191 316191 316191 316191
       1624 316195 316195 316195 316195
       1625 316199 316199 316199 316199
       1626 316202 316202 316202 316202
       1627 316203 316203 316203 316203
       1628 316204 316204 316204 316204
       1629 316206 316206 316206 316206
       1630 316210 316210 316210 316210
       1631 316211 316211 316211 316211
       1632 316212 316212 316212 316212
       1633 316215 316215 316215 316215
       1634 316216 316216 316216 316216
       1635 316217 316217 316217 316217
       1636 316218 316218 316218 316218
       1637 316219 316219 316219 316219
       1638 316220 316220 316220 316220
       1639 316221 316221 316221 316221
       1640 316223 316223 316223 316223
       1641 316228 316228 316228 316228
       1642 316231 316231 316231 316231
       1643 316235 316235 316235 316235
       1644 316239 316239 316239 316239
       1645 316242 316242 316242 316242
       1646 316247 316247 316247 316247
       1647 316248 316248 316248 316248
       1648 316249 316249 316249 316249
       1649 316252 316252 316252 316252
       1650 316253 316253 316253 316253
       1651 316254 316254 316254 316254
       1652 316255 316255 316255 316255
       1653 316256 316256 316256 316256
       1654 316257 316257 316257 316257
       1655 316259 316259 316259 316259
       1656 316264 316264 316264 316264
       1657 316267 316267 316267 316267
       1658 316271 316271 316271 316271
       1659 316278 316278 316278 316278
       1660 316280 316280 316280 316280
       1661 316281 316281 316281 316281
       1662 316282 316282 316282 316282
       1663 316285 316285 316285 316285
       1664 316286 316286 316286 316286
       1665 316287 316287 316287 316287
       1666 316288 316288 316288 316288
       1667 316289 316289 316289 316289
       1668 316290 316290 316290 316290
       1669 316291 316291 316291 316291
       1670 316293 316293 316293 316293
       1671 316298 316298 316298 316298
       1672 316301 316301 316301 316301
       1673 316305 316305 316305 316305
       1674 316312 316312 316312 316312
       1675 316314 316314 316314 316314
       1676 316315 316315 316315 316315
       1677 316316 316316 316316 316316
       1678 316317 316317 316317 316317
       1679 316320 316320 316320 316320
       1680 316321 316321 316321 316321
       1681 316322 316322 316322 316322
       1682 316323 316323 316323 316323
       1683 316324 316324 316324 316324
       1684 316325 316325 316325 316325
       1685 316326 316326 316326 316326
       1686 316328 316328 316328 316328
       1687 316333 316333 316333 316333
       1688 316336 316336 316336 316336
       1689 316340 316340 316340 316340
       1690 316347 316347 316347 316347
       1691 316348 316348 316348 316348
       1692 316350 316350 316350 316350
       1693 316351 316351 316351 316351
       1694 316352 316352 316352 316352
       1695 316353 316353 316353 316353
       1696 316356 316356 316356 316356
       1697 316357 316357 316357 316357
       1698 316358 316358 316358 316358
       1699 316359 316359 316359 316359
       1700 316360 316360 316360 316360
       1701 316361 316361 316361 316361
       1702 316363 316363 316363 316363
       1703 316368 316368 316368 316368
       1704 316371 316371 316371 316371
       1705 316375 316375 316375 316375
       1706 316382 316382 316382 316382
       1707 316383 316383 316383 316383
       1708 316385 316385 316385 316385
       1709 316387 316387 316387 316387
       1710 316388 316388 316388 316388
       1711 316389 316389 316389 316389
       1712 316391 316391 316391 316391
       1713 316393 316393 316393 316393
       1714 316394 316394 316394 316394
       1715 316395 316395 316395 316395
       1716 316396 316396 316396 316396
       1717 316397 316397 316397 316397
       1718 316399 316399 316399 316399
       1719 316404 316404 316404 316404
       1720 316407 316407 316407 316407
       1721 316411 316411 316411 316411
       1722 316418 316418 316418 316418
       1723 316423 316423 316423 316423
       1724 316424 316424 316424 316424
       1725 316425 316425 316425 316425
       1726 316426 316426 316426 316426
       1727 316428 316428 316428 316428
       1728 316430 316430 316430 316430
       1729 316431 316431 316431 316431
       1730 316432 316432 316432 316432
       1731 316433 316433 316433 316433
       1732 316434 316434 316434 316434
       1733 316437 316437 316437 316437
       1734 316442 316442 316442 316442
       1735 316445 316445 316445 316445
       1736 316449 316449 316449 316449
       1737 316456 316456 316456 316456
       1738 316457 316457 316457 316457
       1739 316459 316459 316459 316459
       1740 316460 316460 316460 316460
       1741 316461 316461 316461 316461
       1742 316462 316462 316462 316462
       1743 316465 316465 316465 316465
       1744 316466 316466 316466 316466
       1745 316467 316467 316467 316467
       1746 316468 316468 316468 316468
       1747 316470 316470 316470 316470
       1748 316472 316472 316472 316472
       1749 316476 316476 316476 316476
       1750 316479 316479 316479 316479
       1751 316483 316483 316483 316483
       1752 316490 316490 316490 316490
       1753 316493 316493 316493 316493
       1754 316495 316495 316495 316495
       1755 316496 316496 316496 316496
       1756 316497 316497 316497 316497
       1757 316498 316498 316498 316498
       1758 316499 316499 316499 316499
       1759 316502 316502 316502 316502
       1760 316503 316503 316503 316503
       1761 316505 316505 316505 316505
       1762 316506 316506 316506 316506
       1763 316509 316509 316509 316509
       1764 316514 316514 316514 316514
       1765 316517 316517 316517 316517
       1766 316521 316521 316521 316521
       1767 316528 316528 316528 316528
       1768 316534 316534 316534 316534
       1769 316536 316536 316536 316536
       1770 316537 316537 316537 316537
       1771 316538 316538 316538 316538
       1772 316539 316539 316539 316539
       1773 316542 316542 316542 316542
       1774 316543 316543 316543 316543
       1775 316545 316545 316545 316545
       1776 316546 316546 316546 316546
       1777 316548 316548 316548 316548
       1778 316553 316553 316553 316553
       1779 316556 316556 316556 316556
       1780 316560 316560 316560 316560
       1781 316567 316567 316567 316567
       1782 316569 316569 316569 316569
       1783 316570 316570 316570 316570
       1784 316572 316572 316572 316572
       1785 316573 316573 316573 316573
       1786 316574 316574 316574 316574
       1787 316575 316575 316575 316575
       1788 316578 316578 316578 316578
       1789 316579 316579 316579 316579
       1790 316581 316581 316581 316581
       1791 316583 316583 316583 316583
       1792 316586 316586 316586 316586
       1793 316591 316591 316591 316591
       1794 316594 316594 316594 316594
       1795 316598 316598 316598 316598
       1796 316606 316606 316606 316606
       1797 316607 316607 316607 316607
       1798 316608 316608 316608 316608
       1799 316609 316609 316609 316609
       1800 316611 316611 316611 316611
       1801 316612 316612 316612 316612
       1802 316613 316613 316613 316613
       1803 316614 316614 316614 316614
       1804 316617 316617 316617 316617
       1805 316618 316618 316618 316618
       1806 316619 316619 316619 316619
       1807 316622 316622 316622 316622
       1808 316625 316625 316625 316625
       1809 316630 316630 316630 316630
       1810 316633 316633 316633 316633
       1811 316637 316637 316637 316637
       1812 316645 316645 316645 316645
       1813 316646 316646 316646 316646
       1814 316647 316647 316647 316647
       1815 316650 316650 316650 316650
       1816 316651 316651 316651 316651
       1817 316652 316652 316652 316652
       1818 316653 316653 316653 316653
       1819 316656 316656 316656 316656
       1820 316657 316657 316657 316657
       1821 316658 316658 316658 316658
       1822 316661 316661 316661 316661
       1823 316664 316664 316664 316664
       1824 316669 316669 316669 316669
       1825 316672 316672 316672 316672
       1826 316676 316676 316676 316676
       1827 316684 316684 316684 316684
       1828 316687 316687 316687 316687
       1829 316688 316688 316688 316688
       1830 316689 316689 316689 316689
       1831 316690 316690 316690 316690
       1832 316692 316692 316692 316692
       1833 316694 316694 316694 316694
       1834 316695 316695 316695 316695
       1835 316697 316697 316697 316697
       1836 316700 316700 316700 316700
       1837 316705 316705 316705 316705
       1838 316708 316708 316708 316708
       1839 316712 316712 316712 316712
       1840 316720 316720 316720 316720
       1841 316721 316721 316721 316721
       1842 316722 316722 316722 316722
       1843 316723 316723 316723 316723
       1844 316726 316726 316726 316726
       1845 316727 316727 316727 316727
       1846 316728 316728 316728 316728
       1847 316729 316729 316729 316729
       1848 316732 316732 316732 316732
       1849 316734 316734 316734 316734
       1850 316737 316737 316737 316737
       1851 316738 316738 316738 316738
       1852 316740 316740 316740 316740
       1853 316745 316745 316745 316745
       1854 316748 316748 316748 316748
       1855 316749 316749 316749 316749
       1856 316752 316752 316752 316752
       1857 316761 316761 316761 316761
       1858 316762 316762 316762 316762
       1859 316765 316765 316765 316765
       1860 316766 316766 316766 316766
       1861 316767 316767 316767 316767
       1862 316769 316769 316769 316769
       1863 316771 316771 316771 316771
       1864 316772 316772 316772 316772
       1865 316773 316773 316773 316773
       1866 316776 316776 316776 316776
       1867 316779 316779 316779 316779
       1868 316784 316784 316784 316784
       1869 316787 316787 316787 316787
       1870 316788 316788 316788 316788
       1871 316791 316791 316791 316791
       1872 316801 316801 316801 316801
       1873 316802 316802 316802 316802
       1874 316804 316804 316804 316804
       1875 316805 316805 316805 316805
       1876 316806 316806 316806 316806
       1877 316807 316807 316807 316807
[...]
     number of failed beam   elements = 0
     number of failed shell  elements = 0
     number of failed tshell elements = 0
 f a i l e d   e l e m e n t   r e p o r t  time=  3.8448E-05
     number of failed solid  elements = 0
     number of failed beam   elements = 0
     number of failed shell  elements = 0
     number of failed tshell elements = 0
 f a i l e d   e l e m e n t   r e p o r t  time=  3.8520E-05
     number of failed solid  elements = 0
     number of failed beam   elements = 0
     number of failed shell  elements = 0
     number of failed tshell elements = 0
 f a i l e d   e l e m e n t   r e p o r t  time=  3.8879E-05
     number of failed solid  elements = 0
     number of failed beam   elements = 0
     number of failed shell  elements = 0
     number of failed tshell elements = 0
 f a i l e d   e l e m e n t   r e p o r t  time=  3.9129E-05
     number of failed solid  elements = 0
     number of failed beam   elements = 0
     number of failed shell  elements = 0
     number of failed tshell elements = 0
 f a i l e d   e l e m e n t   r e p o r t  time=  3.9207E-05
     number of failed solid  elements = 0
     number of failed beam   elements = 0
     number of failed shell  elements = 0
     number of failed tshell elements = 0
 f a i l e d   e l e m e n t   r e p o r t  time=  3.9234E-05
     number of failed solid  elements = 0
     number of failed beam   elements = 0
     number of failed shell  elements = 0
     number of failed tshell elements = 0
 f a i l e d   e l e m e n t   r e p o r t  time=  3.9243E-05
     number of failed solid  elements = 0
     number of failed beam   elements = 0
     number of failed shell  elements = 0
     number of failed tshell elements = 0
 f a i l e d   e l e m e n t   r e p o r t  time=  3.9345E-05
     number of failed solid  elements = 0
     number of failed beam   elements = 0
     number of failed shell  elements = 0
     number of failed tshell elements = 0
 f a i l e d   e l e m e n t   r e p o r t  time=  3.9826E-05
     number of failed solid  elements = 0
     number of failed beam   elements = 0
     number of failed shell  elements = 0
     number of failed tshell elements = 0
 f a i l e d   e l e m e n t   r e p o r t  time=  3.9832E-05
     number of failed solid  elements = 0
     number of failed beam   elements = 0
     number of failed shell  elements = 0
     number of failed tshell elements = 0
 f a i l e d   e l e m e n t   r e p o r t  time=  3.9907E-05
     number of failed solid  elements = 0
     number of failed beam   elements = 0
     number of failed shell  elements = 0
     number of failed tshell elements = 0
 f a i l e d   e l e m e n t   r e p o r t  time=  3.9916E-05
     number of failed solid  elements = 0
     number of failed beam   elements = 0
     number of failed shell  elements = 0
     number of failed tshell elements = 0
 f a i l e d   e l e m e n t   r e p o r t  time=  3.9985E-05
     number of failed solid  elements = 0
     number of failed beam   elements = 0
     number of failed shell  elements = 0
     number of failed tshell elements = 0
 f a i l e d   e l e m e n t   r e p o r t  time=  4.0259E-05
     number of failed solid  elements = 0
     number of failed beam   elements = 0
     number of failed shell  elements = 0
     number of failed tshell elements = 0
 f a i l e d   e l e m e n t   r e p o r t  time=  4.0528E-05
     number of failed solid  elements = 0
     number of failed beam   elements = 0
     number of failed shell  elements = 0
     number of failed tshell elements = 0
 f a i l e d   e l e m e n t   r e p o r t  time=  4.0579E-05
     number of failed solid  elements = 0
     number of failed beam   elements = 0
     number of failed shell  elements = 0
     number of failed tshell elements = 0
 f a i l e d   e l e m e n t   r e p o r t  time=  4.0852E-05
     number of failed solid  elements = 0
     number of failed beam   elements = 0
     number of failed shell  elements = 0
     number of failed tshell elements = 0
 f a i l e d   e l e m e n t   r e p o r t  time=  4.1017E-05
     number of failed solid  elements = 0
     number of failed beam   elements = 0
     number of failed shell  elements = 0
     number of failed tshell elements = 0
 f a i l e d   e l e m e n t   r e p o r t  time=  4.1103E-05
     number of failed solid  elements = 0
     number of failed beam   elements = 0
     number of failed shell  elements = 0
     number of failed tshell elements = 0
 f a i l e d   e l e m e n t   r e p o r t  time=  4.1164E-05
     number of failed solid  elements = 0
     number of failed beam   elements = 0
     number of failed shell  elements = 0
     number of failed tshell elements = 0
 f a i l e d   e l e m e n t   r e p o r t  time=  4.1183E-05
     number of failed solid  elements = 0
     number of failed beam   elements = 0
     number of failed shell  elements = 0
     number of failed tshell elements = 0
 f a i l e d   e l e m e n t   r e p o r t  time=  4.1380E-05
     number of failed solid  elements = 0
     number of failed beam   elements = 0
     number of failed shell  elements = 0
     number of failed tshell elements = 0
 f a i l e d   e l e m e n t   r e p o r t  time=  4.1457E-05
     number of failed solid  elements = 0
     number of failed beam   elements = 0
     number of failed shell  elements = 0
     number of failed tshell elements = 0
 f a i l e d   e l e m e n t   r e p o r t  time=  4.1479E-05
     number of failed solid  elements = 0
     number of failed beam   elements = 0
     number of failed shell  elements = 0
     number of failed tshell elements = 0
 f a i l e d   e l e m e n t   r e p o r t  time=  4.1500E-05
     number of failed solid  elements = 0
     number of failed beam   elements = 0
     number of failed shell  elements = 0
     number of failed tshell elements = 0
 f a i l e d   e l e m e n t   r e p o r t  time=  4.1919E-05
     number of failed solid  elements = 0
     number of failed beam   elements = 0
     number of failed shell  elements = 0
     number of failed tshell elements = 0
 f a i l e d   e l e m e n t   r e p o r t  time=  4.2203E-05
     number of failed solid  elements = 0
     number of failed beam   elements = 0
     number of failed shell  elements = 0
     number of failed tshell elements = 0
 f a i l e d   e l e m e n t   r e p o r t  time=  4.2216E-05
     number of failed solid  elements = 0
     number of failed beam   elements = 0
     number of failed shell  elements = 0
     number of failed tshell elements = 0
 f a i l e d   e l e m e n t   r e p o r t  time=  4.2422E-05
     number of failed solid  elements = 0
     number of failed beam   elements = 0
     number of failed shell  elements = 0
     number of failed tshell elements = 0
 f a i l e d   e l e m e n t   r e p o r t  time=  4.2673E-05
     number of failed solid  elements = 0
     number of failed beam   elements = 0
     number of failed shell  elements = 0
     number of failed tshell elements = 0
 f a i l e d   e l e m e n t   r e p o r t  time=  4.2694E-05
     number of failed solid  elements = 0
     number of failed beam   elements = 0
     number of failed shell  elements = 0
     number of failed tshell elements = 0
 f a i l e d   e l e m e n t   r e p o r t  time=  4.2696E-05
     number of failed solid  elements = 0
     number of failed beam   elements = 0
     number of failed shell  elements = 0
     number of failed tshell elements = 0
 f a i l e d   e l e m e n t   r e p o r t  time=  4.3153E-05
     number of failed solid  elements = 0
     number of failed beam   elements = 0
     number of failed shell  elements = 0
     number of failed tshell elements = 0
 f a i l e d   e l e m e n t   r e p o r t  time=  4.3473E-05
     number of failed solid  elements = 0
     number of failed beam   elements = 0
     number of failed shell  elements = 0
     number of failed tshell elements = 0
 f a i l e d   e l e m e n t   r e p o r t  time=  4.3619E-05
     number of failed solid  elements = 0
     number of failed beam   elements = 0
     number of failed shell  elements = 0
     number of failed tshell elements = 0
 f a i l e d   e l e m e n t   r e p o r t  time=  4.3940E-05
     number of failed solid  elements = 0
     number of failed beam   elements = 0
     number of failed shell  elements = 0
     number of failed tshell elements = 0
 f a i l e d   e l e m e n t   r e p o r t  time=  4.4013E-05
     number of failed solid  elements = 0
     number of failed beam   elements = 0
     number of failed shell  elements = 0
     number of failed tshell elements = 0
 f a i l e d   e l e m e n t   r e p o r t  time=  4.4037E-05
     number of failed solid  elements = 0
     number of failed beam   elements = 0
     number of failed shell  elements = 0
     number of failed tshell elements = 0
 f a i l e d   e l e m e n t   r e p o r t  time=  4.4567E-05
     number of failed solid  elements = 0
     number of failed beam   elements = 0
     number of failed shell  elements = 0
     number of failed tshell elements = 0
 f a i l e d   e l e m e n t   r e p o r t  time=  4.5075E-05
     number of failed solid  elements = 0
     number of failed beam   elements = 0
     number of failed shell  elements = 0
     number of failed tshell elements = 0
 f a i l e d   e l e m e n t   r e p o r t  time=  4.5833E-05
     number of failed solid  elements = 0
     number of failed beam   elements = 0
     number of failed shell  elements = 0
     number of failed tshell elements = 0
 f a i l e d   e l e m e n t   r e p o r t  time=  4.6573E-05
     number of failed solid  elements = 0
     number of failed beam   elements = 0
     number of failed shell  elements = 0
     number of failed tshell elements = 0
 f a i l e d   e l e m e n t   r e p o r t  time=  4.7133E-05
     number of failed solid  elements = 0
     number of failed beam   elements = 0
     number of failed shell  elements = 0
     number of failed tshell elements = 0
 f a i l e d   e l e m e n t   r e p o r t  time=  4.7958E-05
     number of failed solid  elements = 0
     number of failed beam   elements = 0
     number of failed shell  elements = 0
     number of failed tshell elements = 0
 f a i l e d   e l e m e n t   r e p o r t  time=  4.8527E-05
     number of failed solid  elements = 0
     number of failed beam   elements = 0
     number of failed shell  elements = 0
     number of failed tshell elements = 0
 f a i l e d   e l e m e n t   r e p o r t  time=  4.8974E-05
     number of failed solid  elements = 0
     number of failed beam   elements = 0
     number of failed shell  elements = 0
     number of failed tshell elements = 0
 f a i l e d   e l e m e n t   r e p o r t  time=  4.9442E-05
     number of failed solid  elements = 0
     number of failed beam   elements = 0
     number of failed shell  elements = 0
     number of failed tshell elements = 0
 f a i l e d   e l e m e n t   r e p o r t  time=  4.9573E-05
     number of failed solid  elements = 0
     number of failed beam   elements = 0
     number of failed shell  elements = 0
     number of failed tshell elements = 0
 f a i l e d   e l e m e n t   r e p o r t  time=  4.9595E-05
     number of failed solid  elements = 0
     number of failed beam   elements = 0
     number of failed shell  elements = 0
     number of failed tshell elements = 0
 f a i l e d   e l e m e n t   r e p o r t  time=  5.2175E-05
     number of failed solid  elements = 0
     number of failed beam   elements = 0
     number of failed shell  elements = 0
     number of failed tshell elements = 0
 f a i l e d   e l e m e n t   r e p o r t  time=  5.3237E-05
     number of failed solid  elements = 0
     number of failed beam   elements = 0
     number of failed shell  elements = 0
     number of failed tshell elements = 0
 f a i l e d   e l e m e n t   r e p o r t  time=  5.3692E-05
     number of failed solid  elements = 0
     number of failed beam   elements = 0
     number of failed shell  elements = 0
     number of failed tshell elements = 0
 f a i l e d   e l e m e n t   r e p o r t  time=  5.6581E-05
     number of failed solid  elements = 0
     number of failed beam   elements = 0
     number of failed shell  elements = 0
     number of failed tshell elements = 0
 f a i l e d   e l e m e n t   r e p o r t  time=  5.7211E-05
     number of failed solid  elements = 0
     number of failed beam   elements = 0
     number of failed shell  elements = 0
     number of failed tshell elements = 0
 f a i l e d   e l e m e n t   r e p o r t  time=  5.8472E-05
     number of failed solid  elements = 0
     number of failed beam   elements = 0
     number of failed shell  elements = 0
     number of failed tshell elements = 0
 f a i l e d   e l e m e n t   r e p o r t  time=  5.8590E-05
     number of failed solid  elements = 0
     number of failed beam   elements = 0
     number of failed shell  elements = 0
     number of failed tshell elements = 0

 S t o r a g e   a l l o c a t i o n   

 Memory required to complete solution   :     275K
 Additional dynamically allocated memory:      30M
                                   Total:      30M


 P r o c e s s o r   #         2

 T i m i n g   i n f o r m a t i o n
                        CPU(seconds)   %CPU  Clock(seconds) %Clock
  ----------------------------------------------------------------
  Keyword Processing ... 4.5414E-01    0.17     4.6024E-01    0.17
  MPP Decomposition .... 7.2820E-01    0.27     8.0740E-01    0.29
    Init Proc .......... 5.9219E-01    0.22     5.9464E-01    0.22
    Decomposition ...... 4.1950E-02    0.02     4.5033E-02    0.02
    Translation ........ 9.4028E-02    0.03     1.6768E-01    0.06
  Initialization ....... 1.9886E-01    0.07     3.4515E-01    0.13
    Init Proc Phase 1 .. 1.0028E-01    0.04     1.2442E-01    0.05
    Init Proc Phase 2 .. 1.1726E-02    0.00     4.0042E-02    0.01
  Init solver .......... 1.7073E-03    0.00     6.2670E-03    0.00
  Element processing ... 1.1482E+02   42.15     1.1548E+02   42.11
    Solids ............. 1.0998E+02   40.37     1.1061E+02   40.34
    E Other ............ 5.9625E-02    0.02     5.9812E-02    0.02
  Binary databases ..... 4.3241E-01    0.16     4.4437E-01    0.16
  ASCII database ....... 1.5372E+00    0.56     1.5493E+00    0.56
  Contact algorithm .... 4.7809E+01   17.55     4.8065E+01   17.53
    Interf. ID         3 1.1931E+01    4.38     1.1994E+01    4.37
    Interf. ID         2 2.9633E+01   10.88     2.9793E+01   10.86
  Rigid Bodies ......... 1.4007E-01    0.05     1.4125E-01    0.05
  DEM .................. 1.9536E+01    7.17     1.9634E+01    7.16
    DEM self contact ... 1.9040E+01    6.99     1.9139E+01    6.98
  Time step size ....... 5.1493E+01   18.90     5.1740E+01   18.87
  Group force file ..... 4.4498E-02    0.02     5.8536E-02    0.02
  Others ............... 9.4469E-01    0.35     1.0027E+00    0.37
    Force Sharing ...... 6.9343E-01    0.25     6.9539E-01    0.25
  Misc. 1 .............. 2.0567E+01    7.55     2.0683E+01    7.54
    Scale Masses ....... 1.6785E-02    0.01     1.6898E-02    0.01
    Force Constraints .. 2.1860E-02    0.01     2.2026E-02    0.01
    Force to Accel ..... 1.7877E+00    0.66     1.7915E+00    0.65
    Constraint Sharing . 2.8330E-02    0.01     2.8625E-02    0.01
    Update RB nodes .... 2.5479E-02    0.01     2.7483E-02    0.01
  Misc. 2 .............. 4.1869E+00    1.54     4.1982E+00    1.53
  Misc. 3 .............. 8.3199E+00    3.05     8.3971E+00    3.06
  Misc. 4 .............. 1.1998E+00    0.44     1.2141E+00    0.44
    Timestep Init ...... 9.9052E-01    0.36     9.9008E-01    0.36
    Apply Loads ........ 1.5709E-01    0.06     1.6670E-01    0.06
  ----------------------------------------------------------------
  T o t a l s            2.7241E+02  100.00     2.7423E+02  100.00


 A v e r a g e s

 T i m i n g   i n f o r m a t i o n
                        CPU(seconds)   %CPU  Clock(seconds) %Clock
  ----------------------------------------------------------------
  Keyword Processing ... 3.9323E-01    0.15     4.6024E-01    0.17
    KW Reading ......... 1.8906E-02    0.01     2.7352E-02    0.01
    KW Writing ......... 1.1132E-02    0.00     2.7519E-02    0.01
  MPP Decomposition .... 6.5655E-01    0.24     8.0785E-01    0.29
    Init Proc .......... 5.1980E-01    0.19     5.9430E-01    0.22
    Decomposition ...... 3.5993E-02    0.01     4.5386E-02    0.02
    Translation ........ 1.0070E-01    0.04     1.6811E-01    0.06
  Initialization ....... 1.8088E-01    0.07     3.4730E-01    0.13
    Init Proc Phase 1 .. 9.8978E-02    0.04     1.2465E-01    0.05
    Init Proc Phase 2 .. 1.1672E-02    0.00     4.0048E-02    0.01
  Init solver .......... 1.2627E-03    0.00     3.6668E-03    0.00
  Element processing ... 1.2508E+02   46.21     1.2575E+02   45.86
    Solids ............. 1.2043E+02   44.49     1.2106E+02   44.15
    E Other ............ 7.0130E-02    0.03     7.0453E-02    0.03
  Binary databases ..... 4.3579E-01    0.16     4.4998E-01    0.16
  ASCII database ....... 1.7684E+00    0.65     3.4725E+00    1.27
  Contact algorithm .... 4.8437E+01   17.90     4.8680E+01   17.75
    Interf. ID         3 1.2353E+01    4.56     1.2413E+01    4.53
    Interf. ID         2 3.0587E+01   11.30     3.0738E+01   11.21
  Rigid Bodies ......... 1.1744E-01    0.04     1.1842E-01    0.04
  DEM .................. 1.8612E+01    6.88     1.8698E+01    6.82
    DEM self contact ... 1.8109E+01    6.69     1.8196E+01    6.64
  Time step size ....... 4.1317E+01   15.27     4.1492E+01   15.13
  Group force file ..... 4.2109E-02    0.02     5.3029E-02    0.02
  Others ............... 1.4487E+00    0.54     1.5048E+00    0.55
    Force Sharing ...... 1.1922E+00    0.44     1.1969E+00    0.44
  Misc. 1 .............. 2.0557E+01    7.60     2.0677E+01    7.54
    Scale Masses ....... 1.7210E-02    0.01     1.7380E-02    0.01
    Force Constraints .. 2.2482E-02    0.01     2.2557E-02    0.01
    Force to Accel ..... 1.7787E+00    0.66     1.7830E+00    0.65
    Constraint Sharing . 2.8136E-02    0.01     2.8288E-02    0.01
    Update RB nodes .... 2.7393E-02    0.01     2.8966E-02    0.01
  Misc. 2 .............. 3.9646E+00    1.46     3.9771E+00    1.45
  Misc. 3 .............. 6.4557E+00    2.39     6.5246E+00    2.38
  Misc. 4 .............. 1.1930E+00    0.44     1.2066E+00    0.44
    Timestep Init ...... 9.6249E-01    0.36     9.6129E-01    0.35
    Apply Loads ........ 1.7802E-01    0.07     1.8855E-01    0.07
  ----------------------------------------------------------------
  T o t a l s            2.7066E+02  100.00     2.7423E+02  100.00

 Problem time       =    6.0000E-05
 Problem cycle      =     53892
 Total CPU time     =       271 seconds (   0 hours  4 minutes 31 seconds)
 CPU time per zone cycle  =        431.308 nanoseconds
 Clock time per zone cycle=        436.643 nanoseconds

 Parallel execution with      4 MPP proc
 NLQ used/max                64/    64

  C P U   T i m i n g   i n f o r m a t i o n

  Processor   Hostname                              CPU/Avg_CPU  CPU(seconds)
  ---------------------------------------------------------------------------
  #       0   compute-0-0                               0.97977   2.6524E+02
  #       1   compute-0-0                               1.00647   2.7247E+02
  #       2   compute-0-0                               1.00644   2.7246E+02
  #       3   compute-0-0                               1.00732   2.7270E+02
  ---------------------------------------------------------------------------
  T o t a l s                                                     1.0829E+03


 Start time   04/08/2022 14:23:04  
 End time     04/08/2022 14:27:38  
 Elapsed time     274 seconds for   53892 cycles using     4 MPP procs
             (      0 hour   4 minutes 34 seconds)

 N o r m a l    t e r m i n a t i o n                          04/08/22 14:27:38
