      Date: 04/08/2022      Time: 11:26:22  

     ___________________________________________________
     |                                                 |
     |  Livermore Software Technology, LLC             |
     |                                                 |
     |  7374 Las Positas Road                          |
     |  Livermore, CA 94551                            |
     |  Tel: (925) 449-2500  Fax: (925) 449-2507       |
     |  www.lstc.com                                   |
     |_________________________________________________|
     |                                                 |
     |  LS-DYNA, A Program for Nonlinear Dynamic       |
     |  Analysis of Structures in Three Dimensions     |
     |  Version : mpp d R12.0.0   Date: 06/19/2020     |
     |  Revision: 148931          Time: 17:26:40       |
     |                                                 |
     |  Features enabled in this version:              |
     |    Distributed Memory Parallel                  |
     |    CESE CHEMISTRY EM ICFD STOCHASTIC_PARTICLES  |
     |    FFTW (multi-dimensional FFTW Library)        |
     |    ANSYS License (ANSYS202)                     |
     |    BigID  option                                |
     |                                                 |
     |  Licensed to: Norwegian University of Science an|
     |  Issued by  : Pascale.SaneGuttin_02092022       |
     |                                                 |
     |  Platform   : Intel-MPI 2018 Xeon64             |
     |  OS Level   : Linux CentOS 6.5 uom              |
     |  Compiler   : Intel Fortran Compiler 16.0 AVX-2 |
     |  Hostname   : compute-0-0                       |
     |  Precision  : Double precision (I8R8)           |
     |  SVN Version: 148978                            |
     |                                                 |
     |  Unauthorized use infringes LST copyrights      |
     |_________________________________________________|


 Input file: DynaOpt.key                                                                     

 The native file format       : 64-bit small endian
 Memory size from default     :   100000000,            0
 Binary file                  : 32 bit IEEE selected
 d3dump option                : d3dump will be suppressed
 Memory size from default     :   100000000,    100000000

 Memory for the head node
 Memory installed (MB)        :       257787
 Memory available (MB)        :       220751

 ********  notice  ********  notice  ********  notice  ********
 *                                                            *
 * This is the LS-DYNA Finite Element code.                   *
 *                                                            *
 * Neither LST nor the authors assume any responsibility for  *
 * the validity, accuracy, or applicability of any results    *
 * obtained from this system. Users must verify their own     *
 * results.                                                   *
 *                                                            *
 * LST endeavors to make the LS-DYNA code as complete,        *
 * accurate and easy to use as possible.                      *
 * Suggestions and comments are welcomed.  Please report any  *
 * errors encountered in either the documentation or results  *
 * immediately to LST through your site focus.                *
 *                                                            *
 * Copyright (C) 1990-2020                                    *
 * by Livermore Software Technology, LLC                      *
 * All rights reserved                                        *
 *                                                            *
 ********  notice  ********  notice  ********  notice  ********
 
LSTC Environment Variables:
 
LSTC_BINARY=32ieee
LSTC_LICENSE_SERVER=129.241.89.45
LSTC_D3DUMP=off
LSTC_LICENSE=network
 

 Beginning of keyword reader                                   04/08/22 11:26:22
 allocating  memory to   100000000 d     1995258 beginning of keyword reader
 expanding   memory to      254720 d     2153610  
 expanding   memory to      284720 d     2153610  
 expanding   memory to      344720 d     2153610  
 expanding   memory to      364872 d     2153610  
 expanding   memory to      426936 d     2153610  
 expanding   memory to      473096 d     2153610  
 expanding   memory to      494096 d     2153610  
 expanding   memory to      559096 d     2153610  
 expanding   memory to      585592 d     2153610  
 expanding   memory to      691576 d     2153610  
 expanding   memory to      712618 d     2153610  

                                                               04/08/22 11:26:22
 Open include file: mesh_ball_target.key

                                                               04/08/22 11:26:22
 Open include file: mesh_wall.key
 expanding   memory to      741443 d     2153610  
 expanding   memory to      761443 d     2153610  

********** echo of pfile data **********


*********** end of pfile data **********
 expanding   memory to      800255 d     2153610  
 expanding   memory to      825647 d     2153610  
 expanding   memory to     1104959 d     2153610  
 expanding   memory to     1130351 d     2153610  
 expanding   memory to     1151431 d     2406570  
 expanding   memory to     1225211 d     2406570  
 expanding   memory to     1309531 d     2406570  
 expanding   memory to     1425471 d     2406570  
 expanding   memory to     1471943 d     2406570  
 expanding   memory to     1496423 d     2406570  
 expanding   memory to     1519623 d     2453056  
 expanding   memory to     1541623 d     2453056  
 expanding   memory to     1563623 d     2453056  
 expanding   memory to     1585623 d     2453056  
 expanding   memory to     1607623 d     2453056  
 expanding   memory to     1629623 d     2453056  
 expanding   memory to     1651623 d     2453056  
 expanding   memory to     1673623 d     2453056  
 expanding   memory to     1695623 d     2453056  
 expanding   memory to     1717623 d     2453056  
 expanding   memory to     1739623 d     2453056  
 expanding   memory to     1761623 d     2453056  
 expanding   memory to     1783623 d     2453056  
 expanding   memory to     1814555 d     2453056  
 expanding   memory to     1839987 d     2453056  
 expanding   memory to     2118992 d     2453056  

 Memory required to process keyword     :    2118992  
 Additional dynamic memory required     :    2533050  

 allocating  memory to   100000000 d     1800812 end of keyword reader

 MPP execution with       4 procs

 LS-DYNA will perform a structural only analysis 


 Initial reading of file                                       04/08/22 11:26:22
 LS-DYNA keyword deck by LS-PrePost                                      
                         ls-dyna mpp.148931 d           date 06/19/2020
 expanding   memory to        4305 d     1579236 material, node and element data
 expanding   memory to        4399 d     1579255 mat add general damage 0
 expanding   memory to        4459 d     1579255 material added airbag porosity leakage 
 expanding   memory to        4477 d     1579255 material properties
 expanding   memory to        4495 d     1732174 element data for composite material
 expanding   memory to        4510 d     2885289 gradient of damage data
 expanding   memory to        4676 d     2885298 user control for contact interfaces
 contracting memory to        4662 d     2885298 thermal expansion 0
 expanding   memory to        4668 d     2885298 state of charge expansion 0
 expanding   memory to        4670 d     2885298 cross-sectional force definitions 0
 expanding   memory to       40602 d     2885334 temp index array for node sorting
 contracting memory to        4670 d     2921270 just because?
 expanding   memory to       15210 d     2993152 arbitrary element numbering input
 contracting memory to        4690 d     3616958 spc cards
 contracting memory to        4677 d     3654411 process element material data
 expanding   memory to        6678 d     3654405 load curve data
 contracting memory to        4684 d     3654405 user_define_loading_set
 expanding   memory to        4884 d     3654405 regularize time history data
 contracting memory to        4688 d     3654405 *DEFINE_ELEMENT_DEATH
 expanding   memory to        4937 d     3728941 contact interfaces
 expanding   memory to       77801 d     3728941 implicit contact 1
 expanding   memory to      162067 d     3728941 implicit contact 2
 contracting memory to        4937 d     3855455 before call to elgen
 expanding   memory to        5937 d     4208717 contact segment data 1
 expanding   memory to      198053 d     4493069 contact segment data 3
 contracting memory to        4937 d     4339321 contact definition
 expanding   memory to        4991 d     4339322 rigid body
 expanding   memory to        4995 d     4339967 contact friction
 expanding   memory to        5085 d     4339967 joints
 expanding   memory to        7145 d     4339967 de sld2des
 expanding   memory to        7185 d     4403207 discrete elements regions
 expanding   memory to        7285 d     4403807 rigid bodies for disp. termination
 expanding   memory to        7291 d     7669351 mat add cohesive 0
 expanding   memory to        7297 d     7669351 flexible body 2

 Performing Decomposition -- Phase 1                           04/08/22 11:26:23
 expanding   memory to      149969 d     5018695 decomp scratch 1
 expanding   memory to      270222 d     5018695 decomp reverse connectivity
 expanding   memory to      379986 d     5018696 element ownership

Decomposition region 1:

   Part list

Decomposition region 2:

   Everything

Region  1 is distributed to 4 processors

   With no coordinate transformation

Region  2 is distributed to 4 processors

   With no coordinate transformation

Normalized element costs assigned during decomposition:
            Minumum: 9.997170E-01
            Maximum: 1.000096E+00
 Standard Deviation: 1.633916E-04

 contracting memory to      327235 d     5054632 constraint scratch
 contracting memory to      295667 d     5090564 con segment decomp rewrite 2
 expanding   memory to      327236 d     5090564 shadow node processing
 expanding   memory to      363173 d     5054632 share node processing
 contracting memory to      279679 d     5018704 nodal sharing list

 Memory required for decomposition      :     379986  
 Additional dynamic memory required     :    8030158  

 allocating  memory to   100000000 d     4923834 Allocate memory top of decomps
 expanding   memory to       10541 d     4923834 hex ownership chunk
 contracting memory to           7 d     4918568 material sort chunk
 expanding   memory to          19 d     4918568 material uid
 expanding   memory to          24 d     4930829 nodal force sharing lists 1

 Performing Decomposition -- Phase 2                           04/08/22 11:26:23
 expanding   memory to          30 d     4916539 mat scratch
 expanding   memory to          31 d     5979111 tied nodes scratch
 expanding   memory to          34 d     5979111 tied node scratch
 contracting memory to          30 d     5979111 nodal rigid body scratch
 expanding   memory to        1310 d     5979111 DES sld2des scratch
 expanding   memory to       17398 d     5979111 DES sld2des scratch
 contracting memory to        2462 d     5979111 DES sld2des scratch
 contracting memory to          30 d     5979111 spring/damper scratch
 contracting memory to           1 d     4970954 Performing Decomposition -- Phase 3
 Performing Decomposition -- Phase 3                           04/08/22 11:26:23
 LS-DYNA keyword deck by LS-PrePost                                      
                         ls-dyna mpp.148931 d           date 06/19/2020
 expanding   memory to        4305 d     4970954 material, node and element data
 expanding   memory to        4399 d     4970973 mat add general damage 0
 expanding   memory to        4459 d     4970973 material added airbag porosity leakage 
 expanding   memory to        4477 d     4970973 material properties
 expanding   memory to        4495 d     5007180 element data for composite material
 expanding   memory to        4510 d     5306069 gradient of damage data
 expanding   memory to       16782 d     5345632 user control for contact interfaces
 contracting memory to       16768 d     5345632 thermal expansion 0
 expanding   memory to       16774 d     5345632 state of charge expansion 0
 expanding   memory to       16776 d     5345632 cross-sectional force definitions 0
 expanding   memory to       25571 d     5345668 temp index array for node sorting
 contracting memory to       16776 d     5345668 just because?
 expanding   memory to       19413 d     5363276 arbitrary element numbering input
 contracting memory to       16796 d    27729607 spc cards
 contracting memory to       16783 d    27729607 d3thdt storage
 expanding   memory to       16784 d    27810151 process element material data
 expanding   memory to       18785 d    27810145 load curve data
 contracting memory to       16791 d    27810145 user_define_loading_set
 expanding   memory to       16991 d    27810145 regularize time history data
 contracting memory to       16795 d    27810145 *DEFINE_ELEMENT_DEATH
 expanding   memory to       16851 d    27827736 MPP copy of tim vector
 expanding   memory to       17100 d    27794053 contact interfaces
 expanding   memory to       35690 d    27794053 implicit contact 1
 expanding   memory to       56778 d    27794053 implicit contact 2
 contracting memory to       18100 d    28048042 contact segment data 1
 expanding   memory to       65581 d    28291891 contact segment data 3
 expanding   memory to      149901 d    28172972 read contacts, eroding check
 expanding   memory to      231719 d    28172972 eroding neighbors 2
 expanding   memory to      250179 d    28172972 eroding neighbors
 contracting memory to      102501 d    28574818 contact definition
 expanding   memory to      102507 d    28756914 contact history
 expanding   memory to      102561 d    28830523 rigid body
 expanding   memory to      102579 d    28830523 rbe2 scratch
 contracting memory to      102565 d    28888468 contact friction
 expanding   memory to      102655 d    28888474 joints
 expanding   memory to      104715 d    28888474 de sld2des
 expanding   memory to      104755 d    28896385 discrete elements regions
 expanding   memory to      104855 d    29098693 rigid bodies for disp. termination
 expanding   memory to      105233 d    29098693 save d3plot control data
 
 *** Warning 40859 (SOL+859)
     Cannot find elements of slave segment of interface 2
 deleted segment ID          n1          n2          n3          n4
       1 310000 310000 310000 310000
       2 310001 310001 310001 310001
       3 310002 310002 310002 310002
       4 310003 310003 310003 310003
       5 310004 310004 310004 310004
       6 310005 310005 310005 310005
       7 310006 310006 310006 310006
       8 310007 310007 310007 310007
       9 310008 310008 310008 310008
       10 310009 310009 310009 310009
       11 310010 310010 310010 310010
       12 310011 310011 310011 310011
       13 310012 310012 310012 310012
       14 310013 310013 310013 310013
       15 310014 310014 310014 310014
       16 310015 310015 310015 310015
       17 310016 310016 310016 310016
       18 310017 310017 310017 310017
       19 310018 310018 310018 310018
       20 310019 310019 310019 310019
       21 310020 310020 310020 310020
       22 310021 310021 310021 310021
       23 310022 310022 310022 310022
       24 310023 310023 310023 310023
       25 310024 310024 310024 310024
       26 310025 310025 310025 310025
       27 310026 310026 310026 310026
       28 310027 310027 310027 310027
       29 310028 310028 310028 310028
       30 310029 310029 310029 310029
       31 310030 310030 310030 310030
       32 310031 310031 310031 310031
       33 310032 310032 310032 310032
       34 310033 310033 310033 310033
       35 310034 310034 310034 310034
       36 310035 310035 310035 310035
       37 310036 310036 310036 310036
       38 310037 310037 310037 310037
       39 310038 310038 310038 310038
       40 310039 310039 310039 310039
       41 310040 310040 310040 310040
       42 310041 310041 310041 310041
       43 310042 310042 310042 310042
       44 310043 310043 310043 310043
       45 310044 310044 310044 310044
       46 310045 310045 310045 310045
       47 310046 310046 310046 310046
       48 310047 310047 310047 310047
       49 310048 310048 310048 310048
       50 310049 310049 310049 310049
       51 310050 310050 310050 310050
       52 310051 310051 310051 310051
       53 310052 310052 310052 310052
       54 310053 310053 310053 310053
       55 310054 310054 310054 310054
       56 310055 310055 310055 310055
       57 310056 310056 310056 310056
       58 310057 310057 310057 310057
       59 310058 310058 310058 310058
       60 310059 310059 310059 310059
       61 310060 310060 310060 310060
       62 310061 310061 310061 310061
       63 310062 310062 310062 310062
       64 310063 310063 310063 310063
       65 310064 310064 310064 310064
       66 310065 310065 310065 310065
       67 310066 310066 310066 310066
       68 310067 310067 310067 310067
       69 310068 310068 310068 310068
       70 310069 310069 310069 310069
       71 310070 310070 310070 310070
       72 310071 310071 310071 310071
       73 310072 310072 310072 310072
       74 310073 310073 310073 310073
       75 310074 310074 310074 310074
       76 310075 310075 310075 310075
       77 310076 310076 310076 310076
       78 310077 310077 310077 310077
       79 310078 310078 310078 310078
       80 310079 310079 310079 310079
       81 310080 310080 310080 310080
       82 310081 310081 310081 310081
       83 310082 310082 310082 310082
       84 310083 310083 310083 310083
       85 310084 310084 310084 310084
       86 310085 310085 310085 310085
       87 310086 310086 310086 310086
       88 310087 310087 310087 310087
       89 310088 310088 310088 310088
       90 310089 310089 310089 310089
       91 310090 310090 310090 310090
       92 310091 310091 310091 310091
       93 310092 310092 310092 310092
       94 310093 310093 310093 310093
       95 310094 310094 310094 310094
       96 310095 310095 310095 310095
       97 310096 310096 310096 310096
       98 310097 310097 310097 310097
       99 310098 310098 310098 310098
       100 310099 310099 310099 310099
       101 310100 310100 310100 310100
       102 310101 310101 310101 310101
       103 310102 310102 310102 310102
       104 310103 310103 310103 310103
       105 310104 310104 310104 310104
       106 310105 310105 310105 310105
       107 310106 310106 310106 310106
       108 310107 310107 310107 310107
       109 310108 310108 310108 310108
       110 310109 310109 310109 310109
       111 310110 310110 310110 310110
       112 310111 310111 310111 310111
       113 310112 310112 310112 310112
       114 310113 310113 310113 310113
       115 310114 310114 310114 310114
       116 310115 310115 310115 310115
       117 310116 310116 310116 310116
       118 310117 310117 310117 310117
       119 310118 310118 310118 310118
       120 310119 310119 310119 310119
       121 310120 310120 310120 310120
       122 310121 310121 310121 310121
       123 310122 310122 310122 310122
       124 310123 310123 310123 310123
       125 310124 310124 310124 310124
       126 310125 310125 310125 310125
       127 310126 310126 310126 310126
       128 310127 310127 310127 310127
       129 310128 310128 310128 310128
       130 310129 310129 310129 310129
       131 310130 310130 310130 310130
       132 310131 310131 310131 310131
       133 310132 310132 310132 310132
       134 310133 310133 310133 310133
       135 310134 310134 310134 310134
       136 310135 310135 310135 310135
       137 310136 310136 310136 310136
       138 310137 310137 310137 310137
       139 310138 310138 310138 310138
       140 310139 310139 310139 310139
       141 310140 310140 310140 310140
       142 310141 310141 310141 310141
       143 310142 310142 310142 310142
       144 310143 310143 310143 310143
       145 310144 310144 310144 310144
       146 310145 310145 310145 310145
       147 310146 310146 310146 310146
       148 310147 310147 310147 310147
       149 310148 310148 310148 310148
       150 310149 310149 310149 310149
       151 310150 310150 310150 310150
       152 310151 310151 310151 310151
       153 310152 310152 310152 310152
       154 310153 310153 310153 310153
       155 310154 310154 310154 310154
       156 310155 310155 310155 310155
       157 310156 310156 310156 310156
       158 310157 310157 310157 310157
       159 310158 310158 310158 310158
       160 310159 310159 310159 310159
       161 310160 310160 310160 310160
       162 310161 310161 310161 310161
       163 310162 310162 310162 310162
       164 310163 310163 310163 310163
       165 310164 310164 310164 310164
       166 310165 310165 310165 310165
       167 310166 310166 310166 310166
       168 310167 310167 310167 310167
       169 310168 310168 310168 310168
       170 310169 310169 310169 310169
       171 310170 310170 310170 310170
       172 310171 310171 310171 310171
       173 310172 310172 310172 310172
       174 310173 310173 310173 310173
       175 310174 310174 310174 310174
       176 310175 310175 310175 310175
       177 310176 310176 310176 310176
       178 310177 310177 310177 310177
       179 310178 310178 310178 310178
       180 310179 310179 310179 310179
       181 310180 310180 310180 310180
       182 310181 310181 310181 310181
       183 310182 310182 310182 310182
       184 310183 310183 310183 310183
       185 310184 310184 310184 310184
       186 310185 310185 310185 310185
       187 310186 310186 310186 310186
       188 310187 310187 310187 310187
       189 310188 310188 310188 310188
       190 310189 310189 310189 310189
       191 310190 310190 310190 310190
       192 310191 310191 310191 310191
       193 310192 310192 310192 310192
       194 310193 310193 310193 310193
       195 310194 310194 310194 310194
       196 310195 310195 310195 310195
       197 310196 310196 310196 310196
       198 310197 310197 310197 310197
       199 310198 310198 310198 310198
       200 310199 310199 310199 310199
       201 310200 310200 310200 310200
       202 310201 310201 310201 310201
       203 310202 310202 310202 310202
       204 310203 310203 310203 310203
       205 310204 310204 310204 310204
       206 310205 310205 310205 310205
       207 310206 310206 310206 310206
       208 310207 310207 310207 310207
       209 310208 310208 310208 310208
       210 310209 310209 310209 310209
       211 310210 310210 310210 310210
       212 310211 310211 310211 310211
       213 310212 310212 310212 310212
       214 310213 310213 310213 310213
       215 310214 310214 310214 310214
       216 310215 310215 310215 310215
       217 310216 310216 310216 310216
       218 310217 310217 310217 310217
       219 310218 310218 310218 310218
       220 310219 310219 310219 310219
       221 310220 310220 310220 310220
       222 310221 310221 310221 310221
       223 310222 310222 310222 310222
       224 310223 310223 310223 310223
       225 310224 310224 310224 310224
       226 310225 310225 310225 310225
       227 310226 310226 310226 310226
       228 310227 310227 310227 310227
       229 310228 310228 310228 310228
       230 310229 310229 310229 310229
       231 310230 310230 310230 310230
       232 310231 310231 310231 310231
       233 310232 310232 310232 310232
       234 310233 310233 310233 310233
       235 310234 310234 310234 310234
       236 310235 310235 310235 310235
       237 310236 310236 310236 310236
       238 310237 310237 310237 310237
       239 310238 310238 310238 310238
       240 310239 310239 310239 310239
       241 310240 310240 310240 310240
       242 310241 310241 310241 310241
       243 310242 310242 310242 310242
       244 310243 310243 310243 310243
       245 310244 310244 310244 310244
       246 310245 310245 310245 310245
       247 310246 310246 310246 310246
       248 310247 310247 310247 310247
       249 310248 310248 310248 310248
       250 310249 310249 310249 310249
       251 310250 310250 310250 310250
       252 310251 310251 310251 310251
       253 310252 310252 310252 310252
       254 310253 310253 310253 310253
       255 310254 310254 310254 310254
       256 310255 310255 310255 310255
       257 310256 310256 310256 310256
       258 310257 310257 310257 310257
       259 310258 310258 310258 310258
       260 310259 310259 310259 310259
       261 310260 310260 310260 310260
       262 310261 310261 310261 310261
       263 310262 310262 310262 310262
       264 310263 310263 310263 310263
       265 310264 310264 310264 310264
       266 310265 310265 310265 310265
       267 310266 310266 310266 310266
       268 310267 310267 310267 310267
       269 310268 310268 310268 310268
       270 310269 310269 310269 310269
       271 310270 310270 310270 310270
       272 310271 310271 310271 310271
       273 310272 310272 310272 310272
       274 310273 310273 310273 310273
       275 310274 310274 310274 310274
       276 310275 310275 310275 310275
       277 310276 310276 310276 310276
       278 310277 310277 310277 310277
       279 310278 310278 310278 310278
       280 310279 310279 310279 310279
       281 310280 310280 310280 310280
       282 310281 310281 310281 310281
       283 310282 310282 310282 310282
       284 310283 310283 310283 310283
       285 310284 310284 310284 310284
       286 310285 310285 310285 310285
       287 310286 310286 310286 310286
       288 310287 310287 310287 310287
       289 310288 310288 310288 310288
       290 310289 310289 310289 310289
       291 310290 310290 310290 310290
       292 310291 310291 310291 310291
       293 310292 310292 310292 310292
       294 310293 310293 310293 310293
       295 310294 310294 310294 310294
       296 310295 310295 310295 310295
       297 310296 310296 310296 310296
       298 310297 310297 310297 310297
       299 310298 310298 310298 310298
       300 310299 310299 310299 310299
       301 310300 310300 310300 310300
       302 310301 310301 310301 310301
       303 310302 310302 310302 310302
       304 310303 310303 310303 310303
       305 310304 310304 310304 310304
       306 310305 310305 310305 310305
       307 310306 310306 310306 310306
       308 310307 310307 310307 310307
       309 310308 310308 310308 310308
       310 310309 310309 310309 310309
       311 310310 310310 310310 310310
       312 310311 310311 310311 310311
       313 310312 310312 310312 310312
       314 310313 310313 310313 310313
       315 310314 310314 310314 310314
       316 310315 310315 310315 310315
       317 310316 310316 310316 310316
       318 310317 310317 310317 310317
       319 310318 310318 310318 310318
       320 310319 310319 310319 310319
       321 310320 310320 310320 310320
       322 310321 310321 310321 310321
       323 310322 310322 310322 310322
       324 310323 310323 310323 310323
       325 310324 310324 310324 310324
       326 310325 310325 310325 310325
       327 310326 310326 310326 310326
       328 310327 310327 310327 310327
       329 310328 310328 310328 310328
       330 310329 310329 310329 310329
       331 310330 310330 310330 310330
       332 310331 310331 310331 310331
       333 310332 310332 310332 310332
       334 310333 310333 310333 310333
       335 310334 310334 310334 310334
       336 310335 310335 310335 310335
       337 310336 310336 310336 310336
       338 310337 310337 310337 310337
       339 310338 310338 310338 310338
       340 310339 310339 310339 310339
       341 310340 310340 310340 310340
       342 310341 310341 310341 310341
       343 310342 310342 310342 310342
       344 310343 310343 310343 310343
       345 310344 310344 310344 310344
       346 310345 310345 310345 310345
       347 310346 310346 310346 310346
       348 310347 310347 310347 310347
       349 310348 310348 310348 310348
       350 310349 310349 310349 310349
       351 310350 310350 310350 310350
       352 310351 310351 310351 310351
       353 310352 310352 310352 310352
       354 310353 310353 310353 310353
       355 310354 310354 310354 310354
       356 310355 310355 310355 310355
       357 310356 310356 310356 310356
       358 310357 310357 310357 310357
       359 310358 310358 310358 310358
       360 310359 310359 310359 310359
       361 310360 310360 310360 310360
       362 310361 310361 310361 310361
       363 310362 310362 310362 310362
       364 310363 310363 310363 310363
       365 310364 310364 310364 310364
       366 310365 310365 310365 310365
       367 310366 310366 310366 310366
       368 310367 310367 310367 310367
       369 310368 310368 310368 310368
       370 310369 310369 310369 310369
       371 310370 310370 310370 310370
       372 310371 310371 310371 310371
       373 310372 310372 310372 310372
       374 310373 310373 310373 310373
       375 310374 310374 310374 310374
       376 310375 310375 310375 310375
       377 310376 310376 310376 310376
       378 310377 310377 310377 310377
       379 310378 310378 310378 310378
       380 310379 310379 310379 310379
       381 310380 310380 310380 310380
       382 310381 310381 310381 310381
       383 310382 310382 310382 310382
       384 310383 310383 310383 310383
       385 310384 310384 310384 310384
       386 310385 310385 310385 310385
       387 310386 310386 310386 310386
       388 310387 310387 310387 310387
       389 310388 310388 310388 310388
       390 310389 310389 310389 310389
       391 310390 310390 310390 310390
       392 310391 310391 310391 310391
       393 310392 310392 310392 310392
       394 310393 310393 310393 310393
       395 310394 310394 310394 310394
       396 310395 310395 310395 310395
       397 310396 310396 310396 310396
       398 310397 310397 310397 310397
       399 310398 310398 310398 310398
       400 310399 310399 310399 310399
       401 310400 310400 310400 310400
       402 310401 310401 310401 310401
       403 310402 310402 310402 310402
       404 310403 310403 310403 310403
       405 310404 310404 310404 310404
       406 310405 310405 310405 310405
       407 310406 310406 310406 310406
       408 310407 310407 310407 310407
       409 310408 310408 310408 310408
       410 310409 310409 310409 310409
       411 310410 310410 310410 310410
       412 310411 310411 310411 310411
       413 310412 310412 310412 310412
       414 310413 310413 310413 310413
       415 310414 310414 310414 310414
       416 310415 310415 310415 310415
       417 310416 310416 310416 310416
       418 310417 310417 310417 310417
       419 310418 310418 310418 310418
       420 310419 310419 310419 310419
       421 310420 310420 310420 310420
       422 310421 310421 310421 310421
       423 310422 310422 310422 310422
       424 310423 310423 310423 310423
       425 310424 310424 310424 310424
       426 310425 310425 310425 310425
       427 310426 310426 310426 310426
       428 310427 310427 310427 310427
       429 310428 310428 310428 310428
       430 310429 310429 310429 310429
       431 310430 310430 310430 310430
       432 310431 310431 310431 310431
       433 310432 310432 310432 310432
       434 310433 310433 310433 310433
       435 310434 310434 310434 310434
       436 310435 310435 310435 310435
       437 310436 310436 310436 310436
       438 310437 310437 310437 310437
       439 310438 310438 310438 310438
       440 310439 310439 310439 310439
       441 310440 310440 310440 310440
       442 310441 310441 310441 310441
       443 310442 310442 310442 310442
       444 310443 310443 310443 310443
       445 310444 310444 310444 310444
       446 310445 310445 310445 310445
       447 310446 310446 310446 310446
       448 310447 310447 310447 310447
       449 310448 310448 310448 310448
       450 310449 310449 310449 310449
       451 310450 310450 310450 310450
       452 310451 310451 310451 310451
       453 310452 310452 310452 310452
       454 310453 310453 310453 310453
       455 310454 310454 310454 310454
       456 310455 310455 310455 310455
       457 310456 310456 310456 310456
       458 310457 310457 310457 310457
       459 310458 310458 310458 310458
       460 310459 310459 310459 310459
       461 310460 310460 310460 310460
       462 310461 310461 310461 310461
       463 310462 310462 310462 310462
       464 310463 310463 310463 310463
       465 310464 310464 310464 310464
       466 310465 310465 310465 310465
       467 310466 310466 310466 310466
       468 310467 310467 310467 310467
       469 310468 310468 310468 310468
       470 310469 310469 310469 310469
       471 310470 310470 310470 310470
       472 310471 310471 310471 310471
       473 310472 310472 310472 310472
       474 310473 310473 310473 310473
       475 310474 310474 310474 310474
       476 310475 310475 310475 310475
       477 310476 310476 310476 310476
       478 310477 310477 310477 310477
       479 310478 310478 310478 310478
       480 310479 310479 310479 310479
       481 310480 310480 310480 310480
       482 310481 310481 310481 310481
       483 310482 310482 310482 310482
       484 310483 310483 310483 310483
       485 310484 310484 310484 310484
       486 310485 310485 310485 310485
       487 310486 310486 310486 310486
       488 310487 310487 310487 310487
       489 310488 310488 310488 310488
       490 310489 310489 310489 310489
       491 310490 310490 310490 310490
       492 310491 310491 310491 310491
       493 310492 310492 310492 310492
       494 310493 310493 310493 310493
       495 310494 310494 310494 310494
       496 310495 310495 310495 310495
       497 310496 310496 310496 310496
       498 310497 310497 310497 310497
       499 310498 310498 310498 310498
       500 310499 310499 310499 310499
       501 310500 310500 310500 310500
       502 310501 310501 310501 310501
       503 310502 310502 310502 310502
       504 310503 310503 310503 310503
       505 310504 310504 310504 310504
       506 310505 310505 310505 310505
       507 310506 310506 310506 310506
       508 310507 310507 310507 310507
       509 310508 310508 310508 310508
       510 310509 310509 310509 310509
       511 310510 310510 310510 310510
       512 310511 310511 310511 310511
       513 310512 310512 310512 310512
       514 310513 310513 310513 310513
       515 310514 310514 310514 310514
       516 310515 310515 310515 310515
       517 310516 310516 310516 310516
       518 310517 310517 310517 310517
       519 310518 310518 310518 310518
       520 310519 310519 310519 310519
       521 310520 310520 310520 310520
       522 310521 310521 310521 310521
       523 310522 310522 310522 310522
       524 310523 310523 310523 310523
       525 310524 310524 310524 310524
       526 310525 310525 310525 310525
       527 310526 310526 310526 310526
       528 310527 310527 310527 310527
       529 310528 310528 310528 310528
       530 310529 310529 310529 310529
       531 310530 310530 310530 310530
       532 310531 310531 310531 310531
       533 310532 310532 310532 310532
       534 310533 310533 310533 310533
       535 310534 310534 310534 310534
       536 310535 310535 310535 310535
       537 310536 310536 310536 310536
       538 310537 310537 310537 310537
       539 310538 310538 310538 310538
       540 310539 310539 310539 310539
       541 310540 310540 310540 310540
       542 310541 310541 310541 310541
       543 310542 310542 310542 310542
       544 310543 310543 310543 310543
       545 310544 310544 310544 310544
       546 310545 310545 310545 310545
       547 310546 310546 310546 310546
       548 310547 310547 310547 310547
       549 310548 310548 310548 310548
       550 310549 310549 310549 310549
       551 310550 310550 310550 310550
       552 310551 310551 310551 310551
       553 310552 310552 310552 310552
       554 310553 310553 310553 310553
       555 310554 310554 310554 310554
       556 310555 310555 310555 310555
       557 310556 310556 310556 310556
       558 310557 310557 310557 310557
       559 310558 310558 310558 310558
       560 310559 310559 310559 310559
       561 310560 310560 310560 310560
       562 310561 310561 310561 310561
       563 310562 310562 310562 310562
       564 310563 310563 310563 310563
       565 310564 310564 310564 310564
       566 310565 310565 310565 310565
       567 310566 310566 310566 310566
       568 310567 310567 310567 310567
       569 310568 310568 310568 310568
       570 310569 310569 310569 310569
       571 310570 310570 310570 310570
       572 310571 310571 310571 310571
       573 310572 310572 310572 310572
       574 310573 310573 310573 310573
       575 310574 310574 310574 310574
       576 310575 310575 310575 310575
       577 310576 310576 310576 310576
       578 310577 310577 310577 310577
       579 310578 310578 310578 310578
       580 310579 310579 310579 310579
       581 310580 310580 310580 310580
       582 310581 310581 310581 310581
       583 310582 310582 310582 310582
       584 310583 310583 310583 310583
       585 310584 310584 310584 310584
       586 310585 310585 310585 310585
       587 310586 310586 310586 310586
       588 310587 310587 310587 310587
       589 310588 310588 310588 310588
       590 310589 310589 310589 310589
       591 310590 310590 310590 310590
       592 310591 310591 310591 310591
       593 310592 310592 310592 310592
       594 310593 310593 310593 310593
       595 310594 310594 310594 310594
       596 310595 310595 310595 310595
       597 310596 310596 310596 310596
       598 310597 310597 310597 310597
       599 310598 310598 310598 310598
       600 310599 310599 310599 310599
       601 310600 310600 310600 310600
       602 310601 310601 310601 310601
       603 310602 310602 310602 310602
       604 310603 310603 310603 310603
       605 310604 310604 310604 310604
       606 310605 310605 310605 310605
       607 310606 310606 310606 310606
       608 310607 310607 310607 310607
       609 310608 310608 310608 310608
       610 310609 310609 310609 310609
       611 310610 310610 310610 310610
       612 310611 310611 310611 310611
       613 310612 310612 310612 310612
       614 310613 310613 310613 310613
       615 310614 310614 310614 310614
       616 310615 310615 310615 310615
       617 310616 310616 310616 310616
       618 310617 310617 310617 310617
       619 310618 310618 310618 310618
       620 310619 310619 310619 310619
       621 310620 310620 310620 310620
       622 310621 310621 310621 310621
       623 310622 310622 310622 310622
       624 310623 310623 310623 310623
       625 310624 310624 310624 310624
       626 310625 310625 310625 310625
       627 310626 310626 310626 310626
       628 310627 310627 310627 310627
       629 310628 310628 310628 310628
       630 310629 310629 310629 310629
       631 310630 310630 310630 310630
       632 310631 310631 310631 310631
       633 310632 310632 310632 310632
       634 310633 310633 310633 310633
       635 310634 310634 310634 310634
       636 310635 310635 310635 310635
       637 310636 310636 310636 310636
       638 310637 310637 310637 310637
       639 310638 310638 310638 310638
       640 310639 310639 310639 310639
       641 310653 310653 310653 310653
       642 310667 310667 310667 310667
       643 310668 310668 310668 310668
       644 310684 310684 310684 310684
       645 310699 310699 310699 310699
       646 310700 310700 310700 310700
       647 310718 310718 310718 310718
       648 310733 310733 310733 310733
       649 310734 310734 310734 310734
       650 310751 310751 310751 310751
       651 310766 310766 310766 310766
       652 310767 310767 310767 310767
       653 310783 310783 310783 310783
       654 310798 310798 310798 310798
       655 310799 310799 310799 310799
       656 310818 310818 310818 310818
       657 310833 310833 310833 310833
       658 310834 310834 310834 310834
       659 310851 310851 310851 310851
       660 310866 310866 310866 310866
       661 310867 310867 310867 310867
       662 310884 310884 310884 310884
       663 310899 310899 310899 310899
       664 310900 310900 310900 310900
       665 310918 310918 310918 310918
       666 310933 310933 310933 310933
       667 310934 310934 310934 310934
       668 310951 310951 310951 310951
       669 310966 310966 310966 310966
       670 310967 310967 310967 310967
       671 310983 310983 310983 310983
       672 310998 310998 310998 310998
       673 310999 310999 310999 310999
       674 311016 311016 311016 311016
       675 311031 311031 311031 311031
       676 311032 311032 311032 311032
       677 311050 311050 311050 311050
       678 311065 311065 311065 311065
       679 311066 311066 311066 311066
       680 311082 311082 311082 311082
       681 311097 311097 311097 311097
       682 311098 311098 311098 311098
       683 311117 311117 311117 311117
       684 311131 311131 311131 311131
       685 311132 311132 311132 311132
       686 311149 311149 311149 311149
       687 311150 311150 311150 311150
       688 311164 311164 311164 311164
       689 311165 311165 311165 311165
       690 311182 311182 311182 311182
       691 311183 311183 311183 311183
       692 311197 311197 311197 311197
       693 311198 311198 311198 311198
       694 311216 311216 311216 311216
       695 311217 311217 311217 311217
       696 311231 311231 311231 311231
       697 311232 311232 311232 311232
       698 311249 311249 311249 311249
       699 311250 311250 311250 311250
       700 311264 311264 311264 311264
       701 311265 311265 311265 311265
       702 311279 311279 311279 311279
       703 311280 311280 311280 311280
       704 311294 311294 311294 311294
       705 311295 311295 311295 311295
       706 311301 311301 311301 311301
       707 311312 311312 311312 311312
       708 311313 311313 311313 311313
       709 311327 311327 311327 311327
       710 311328 311328 311328 311328
       711 311335 311335 311335 311335
       712 311347 311347 311347 311347
       713 311348 311348 311348 311348
       714 311362 311362 311362 311362
       715 311363 311363 311363 311363
       716 311369 311369 311369 311369
       717 311380 311380 311380 311380
       718 311381 311381 311381 311381
       719 311395 311395 311395 311395
       720 311396 311396 311396 311396
       721 311404 311404 311404 311404
       722 311415 311415 311415 311415
       723 311416 311416 311416 311416
       724 311430 311430 311430 311430
       725 311440 311440 311440 311440
       726 311451 311451 311451 311451
       727 311452 311452 311452 311452
       728 311466 311466 311466 311466
       729 311467 311467 311467 311467
       730 311474 311474 311474 311474
       731 311485 311485 311485 311485
       732 311486 311486 311486 311486
       733 311500 311500 311500 311500
       734 311506 311506 311506 311506
       735 311517 311517 311517 311517
       736 311518 311518 311518 311518
       737 311532 311532 311532 311532
       738 311535 311535 311535 311535
       739 311539 311539 311539 311539
       740 311550 311550 311550 311550
       741 311551 311551 311551 311551
       742 311562 311562 311562 311562
       743 311566 311566 311566 311566
       744 311577 311577 311577 311577
       745 311586 311586 311586 311586
       746 311587 311587 311587 311587
       747 311601 311601 311601 311601
       748 311607 311607 311607 311607
       749 311618 311618 311618 311618
       750 311619 311619 311619 311619
       751 311633 311633 311633 311633
       752 311634 311634 311634 311634
       753 311642 311642 311642 311642
       754 311653 311653 311653 311653
       755 311654 311654 311654 311654
       756 311669 311669 311669 311669
       757 311675 311675 311675 311675
       758 311686 311686 311686 311686
       759 311687 311687 311687 311687
       760 311702 311702 311702 311702
       761 311707 311707 311707 311707
       762 311718 311718 311718 311718
       763 311719 311719 311719 311719
       764 311734 311734 311734 311734
       765 311740 311740 311740 311740
       766 311751 311751 311751 311751
       767 311752 311752 311752 311752
       768 311767 311767 311767 311767
       769 311777 311777 311777 311777
       770 311786 311786 311786 311786
       771 311787 311787 311787 311787
       772 311802 311802 311802 311802
       773 311805 311805 311805 311805
       774 311808 311808 311808 311808
       775 311819 311819 311819 311819
       776 311820 311820 311820 311820
       777 311835 311835 311835 311835
       778 311844 311844 311844 311844
       779 311855 311855 311855 311855
       780 311856 311856 311856 311856
       781 311871 311871 311871 311871
       782 311878 311878 311878 311878
       783 311888 311888 311888 311888
       784 311889 311889 311889 311889
       785 311903 311903 311903 311903
       786 311906 311906 311906 311906
       787 311910 311910 311910 311910
       788 311921 311921 311921 311921
       789 311922 311922 311922 311922
       790 311937 311937 311937 311937
       791 311942 311942 311942 311942
       792 311953 311953 311953 311953
       793 311954 311954 311954 311954
       794 311969 311969 311969 311969
       795 311975 311975 311975 311975
       796 311986 311986 311986 311986
       797 311987 311987 311987 311987
       798 312002 312002 312002 312002
       799 312010 312010 312010 312010
       800 312021 312021 312021 312021
       801 312022 312022 312022 312022
       802 312037 312037 312037 312037
       803 312044 312044 312044 312044
       804 312055 312055 312055 312055
       805 312056 312056 312056 312056
       806 312070 312070 312070 312070
       807 312078 312078 312078 312078
       808 312089 312089 312089 312089
       809 312090 312090 312090 312090
       810 312105 312105 312105 312105
       811 312111 312111 312111 312111
       812 312122 312122 312122 312122
       813 312123 312123 312123 312123
       814 312138 312138 312138 312138
       815 312144 312144 312144 312144
       816 312155 312155 312155 312155
       817 312156 312156 312156 312156
       818 312171 312171 312171 312171
       819 312179 312179 312179 312179
       820 312190 312190 312190 312190
       821 312191 312191 312191 312191
       822 312206 312206 312206 312206
       823 312213 312213 312213 312213
       824 312224 312224 312224 312224
       825 312225 312225 312225 312225
       826 312240 312240 312240 312240
       827 312247 312247 312247 312247
       828 312258 312258 312258 312258
       829 312259 312259 312259 312259
       830 312274 312274 312274 312274
       831 312278 312278 312278 312278
       832 312283 312283 312283 312283
       833 312293 312293 312293 312293
       834 312294 312294 312294 312294
       835 312309 312309 312309 312309
       836 312317 312317 312317 312317
       837 312328 312328 312328 312328
       838 312329 312329 312329 312329
       839 312344 312344 312344 312344
       840 312361 312361 312361 312361
       841 312362 312362 312362 312362
       842 312377 312377 312377 312377
       843 312392 312392 312392 312392
       844 312393 312393 312393 312393
       845 312408 312408 312408 312408
       846 312425 312425 312425 312425
       847 312426 312426 312426 312426
       848 312441 312441 312441 312441
       849 312458 312458 312458 312458
       850 312459 312459 312459 312459
       851 312474 312474 312474 312474
       852 312489 312489 312489 312489
       853 312490 312490 312490 312490
       854 312505 312505 312505 312505
       855 312525 312525 312525 312525
       856 312526 312526 312526 312526
       857 312541 312541 312541 312541
       858 312544 312544 312544 312544
       859 312558 312558 312558 312558
       860 312559 312559 312559 312559
       861 312574 312574 312574 312574
       862 312581 312581 312581 312581
       863 312592 312592 312592 312592
       864 312593 312593 312593 312593
       865 312608 312608 312608 312608
       866 312616 312616 312616 312616
       867 312627 312627 312627 312627
       868 312628 312628 312628 312628
       869 312643 312643 312643 312643
       870 312650 312650 312650 312650
       871 312661 312661 312661 312661
       872 312662 312662 312662 312662
       873 312676 312676 312676 312676
       874 312684 312684 312684 312684
       875 312695 312695 312695 312695
       876 312710 312710 312710 312710
       877 312717 312717 312717 312717
       878 312728 312728 312728 312728
       879 312729 312729 312729 312729
       880 312743 312743 312743 312743
       881 312751 312751 312751 312751
       882 312764 312764 312764 312764
       883 312778 312778 312778 312778
       884 312797 312797 312797 312797
       885 312811 312811 312811 312811
       886 312831 312831 312831 312831
       887 312845 312845 312845 312845
       888 312852 312852 312852 312852
       889 312864 312864 312864 312864
       890 312878 312878 312878 312878
       891 312885 312885 312885 312885
       892 312896 312896 312896 312896
       893 312910 312910 312910 312910
       894 312917 312917 312917 312917
       895 312928 312928 312928 312928
       896 312943 312943 312943 312943
       897 312951 312951 312951 312951
       898 312962 312962 312962 312962
       899 312976 312976 312976 312976
       900 312992 312992 312992 312992
       901 313007 313007 313007 313007
       902 313027 313027 313027 313027
       903 313041 313041 313041 313041
       904 313061 313061 313061 313061
       905 313075 313075 313075 313075
       906 313092 313092 313092 313092
       907 313106 313106 313106 313106
       908 313126 313126 313126 313126
       909 313141 313141 313141 313141
       910 313159 313159 313159 313159
       911 313172 313172 313172 313172
       912 313191 313191 313191 313191
       913 313205 313205 313205 313205
       914 313209 313209 313209 313209
       915 313226 313226 313226 313226
       916 313240 313240 313240 313240
       917 313261 313261 313261 313261
       918 313275 313275 313275 313275
       919 313295 313295 313295 313295
       920 313309 313309 313309 313309
       921 313328 313328 313328 313328
       922 313342 313342 313342 313342
       923 313362 313362 313362 313362
       924 313377 313377 313377 313377
       925 313380 313380 313380 313380
       926 313397 313397 313397 313397
       927 313411 313411 313411 313411
       928 313434 313434 313434 313434
       929 313449 313449 313449 313449
       930 313470 313470 313470 313470
       931 313484 313484 313484 313484
       932 313487 313487 313487 313487
       933 313506 313506 313506 313506
       934 313520 313520 313520 313520
       935 313540 313540 313540 313540
       936 313554 313554 313554 313554
       937 313573 313573 313573 313573
       938 313588 313588 313588 313588
       939 313607 313607 313607 313607
       940 313622 313622 313622 313622
       941 313644 313644 313644 313644
       942 313659 313659 313659 313659
       943 313679 313679 313679 313679
       944 313693 313693 313693 313693
       945 313710 313710 313710 313710
       946 313724 313724 313724 313724
       947 313743 313743 313743 313743
       948 313758 313758 313758 313758
       949 313779 313779 313779 313779
       950 313793 313793 313793 313793
       951 313796 313796 313796 313796
       952 313797 313797 313797 313797
       953 313827 313827 313827 313827
       954 313830 313830 313830 313830
       955 313848 313848 313848 313848
       956 313863 313863 313863 313863
       957 313867 313867 313867 313867
       958 313882 313882 313882 313882
       959 313896 313896 313896 313896
       960 313899 313899 313899 313899
       961 313900 313900 313900 313900
       962 313915 313915 313915 313915
       963 313930 313930 313930 313930
       964 313948 313948 313948 313948
       965 313963 313963 313963 313963
       966 313966 313966 313966 313966
       967 313982 313982 313982 313982
       968 313997 313997 313997 313997
       969 314000 314000 314000 314000
       970 314016 314016 314016 314016
       971 314031 314031 314031 314031
       972 314034 314034 314034 314034
       973 314050 314050 314050 314050
       974 314065 314065 314065 314065
       975 314085 314085 314085 314085
       976 314100 314100 314100 314100
       977 314118 314118 314118 314118
       978 314133 314133 314133 314133
       979 314151 314151 314151 314151
       980 314166 314166 314166 314166
       981 314184 314184 314184 314184
       982 314198 314198 314198 314198
       983 314216 314216 314216 314216
       984 314231 314231 314231 314231
       985 314250 314250 314250 314250
       986 314264 314264 314264 314264
       987 314283 314283 314283 314283
       988 314298 314298 314298 314298
       989 314315 314315 314315 314315
       990 314330 314330 314330 314330
       991 314350 314350 314350 314350
       992 314365 314365 314365 314365
       993 314383 314383 314383 314383
       994 314398 314398 314398 314398
       995 314416 314416 314416 314416
       996 314431 314431 314431 314431
       997 314449 314449 314449 314449
       998 314463 314463 314463 314463
       999 314466 314466 314466 314466
       1000 314483 314483 314483 314483
       1001 314497 314497 314497 314497
       1002 314514 314514 314514 314514
       1003 314529 314529 314529 314529
       1004 314547 314547 314547 314547
       1005 314562 314562 314562 314562
       1006 314580 314580 314580 314580
       1007 314595 314595 314595 314595
       1008 314613 314613 314613 314613
       1009 314628 314628 314628 314628
       1010 314647 314647 314647 314647
       1011 314662 314662 314662 314662
       1012 314680 314680 314680 314680
       1013 314694 314694 314694 314694
       1014 314712 314712 314712 314712
       1015 314726 314726 314726 314726
       1016 314746 314746 314746 314746
       1017 314761 314761 314761 314761
       1018 314781 314781 314781 314781
       1019 314796 314796 314796 314796
       1020 314816 314816 314816 314816
       1021 314831 314831 314831 314831
       1022 314852 314852 314852 314852
       1023 314867 314867 314867 314867
       1024 314887 314887 314887 314887
       1025 314902 314902 314902 314902
       1026 314922 314922 314922 314922
       1027 314937 314937 314937 314937
       1028 314946 314946 314946 314946
       1029 314958 314958 314958 314958
       1030 314972 314972 314972 314972
       1031 314980 314980 314980 314980
       1032 314992 314992 314992 314992
       1033 315007 315007 315007 315007
       1034 315015 315015 315015 315015
       1035 315016 315016 315016 315016
       1036 315026 315026 315026 315026
       1037 315041 315041 315041 315041
       1038 315049 315049 315049 315049
       1039 315050 315050 315050 315050
       1040 315061 315061 315061 315061
       1041 315076 315076 315076 315076
       1042 315085 315085 315085 315085
       1043 315086 315086 315086 315086
       1044 315097 315097 315097 315097
       1045 315112 315112 315112 315112
       1046 315119 315119 315119 315119
       1047 315130 315130 315130 315130
       1048 315145 315145 315145 315145
       1049 315156 315156 315156 315156
       1050 315168 315168 315168 315168
       1051 315183 315183 315183 315183
       1052 315193 315193 315193 315193
       1053 315194 315194 315194 315194
       1054 315205 315205 315205 315205
       1055 315218 315218 315218 315218
       1056 315226 315226 315226 315226
       1057 315227 315227 315227 315227
       1058 315237 315237 315237 315237
       1059 315252 315252 315252 315252
       1060 315265 315265 315265 315265
       1061 315266 315266 315266 315266
       1062 315277 315277 315277 315277
       1063 315292 315292 315292 315292
       1064 315302 315302 315302 315302
       1065 315303 315303 315303 315303
       1066 315314 315314 315314 315314
       1067 315329 315329 315329 315329
       1068 315338 315338 315338 315338
       1069 315339 315339 315339 315339
       1070 315350 315350 315350 315350
       1071 315365 315365 315365 315365
       1072 315375 315375 315375 315375
       1073 315376 315376 315376 315376
       1074 315387 315387 315387 315387
       1075 315401 315401 315401 315401
       1076 315408 315408 315408 315408
       1077 315409 315409 315409 315409
       1078 315420 315420 315420 315420
       1079 315435 315435 315435 315435
       1080 315443 315443 315443 315443
       1081 315444 315444 315444 315444
       1082 315455 315455 315455 315455
       1083 315469 315469 315469 315469
       1084 315476 315476 315476 315476
       1085 315477 315477 315477 315477
       1086 315488 315488 315488 315488
       1087 315503 315503 315503 315503
       1088 315512 315512 315512 315512
       1089 315513 315513 315513 315513
       1090 315524 315524 315524 315524
       1091 315539 315539 315539 315539
       1092 315548 315548 315548 315548
       1093 315549 315549 315549 315549
       1094 315559 315559 315559 315559
       1095 315573 315573 315573 315573
       1096 315583 315583 315583 315583
       1097 315584 315584 315584 315584
       1098 315594 315594 315594 315594
       1099 315609 315609 315609 315609
       1100 315613 315613 315613 315613
       1101 315618 315618 315618 315618
       1102 315630 315630 315630 315630
       1103 315645 315645 315645 315645
       1104 315654 315654 315654 315654
       1105 315665 315665 315665 315665
       1106 315680 315680 315680 315680
       1107 315691 315691 315691 315691
       1108 315703 315703 315703 315703
       1109 315717 315717 315717 315717
       1110 315725 315725 315725 315725
       1111 315737 315737 315737 315737
       1112 315752 315752 315752 315752
       1113 315760 315760 315760 315760
       1114 315771 315771 315771 315771
       1115 315786 315786 315786 315786
       1116 315798 315798 315798 315798
       1117 315810 315810 315810 315810
       1118 315825 315825 315825 315825
       1119 315831 315831 315831 315831
       1120 315843 315843 315843 315843
       1121 315858 315858 315858 315858
       1122 315866 315866 315866 315866
       1123 315877 315877 315877 315877
       1124 315892 315892 315892 315892
       1125 315900 315900 315900 315900
       1126 315912 315912 315912 315912
       1127 315927 315927 315927 315927
       1128 315936 315936 315936 315936
       1129 315948 315948 315948 315948
       1130 315962 315962 315962 315962
       1131 315968 315968 315968 315968
       1132 315980 315980 315980 315980
       1133 315995 315995 315995 315995
       1134 316001 316001 316001 316001
       1135 316013 316013 316013 316013
       1136 316028 316028 316028 316028
       1137 316037 316037 316037 316037
       1138 316049 316049 316049 316049
       1139 316064 316064 316064 316064
       1140 316071 316071 316071 316071
       1141 316083 316083 316083 316083
       1142 316098 316098 316098 316098
       1143 316104 316104 316104 316104
       1144 316108 316108 316108 316108
       1145 316120 316120 316120 316120
       1146 316135 316135 316135 316135
       1147 316144 316144 316144 316144
       1148 316156 316156 316156 316156
       1149 316171 316171 316171 316171
       1150 316181 316181 316181 316181
       1151 316193 316193 316193 316193
       1152 316207 316207 316207 316207
       1153 316216 316216 316216 316216
       1154 316228 316228 316228 316228
       1155 316243 316243 316243 316243
       1156 316253 316253 316253 316253
       1157 316265 316265 316265 316265
       1158 316280 316280 316280 316280
       1159 316289 316289 316289 316289
       1160 316299 316299 316299 316299
       1161 316314 316314 316314 316314
       1162 316326 316326 316326 316326
       1163 316337 316337 316337 316337
       1164 316352 316352 316352 316352
       1165 316359 316359 316359 316359
       1166 316370 316370 316370 316370
       1167 316385 316385 316385 316385
       1168 316392 316392 316392 316392
       1169 316402 316402 316402 316402
       1170 316417 316417 316417 316417
       1171 316423 316423 316423 316423
       1172 316428 316428 316428 316428
       1173 316439 316439 316439 316439
       1174 316453 316453 316453 316453
       1175 316457 316457 316457 316457
       1176 316458 316458 316458 316458
       1177 316463 316463 316463 316463
       1178 316474 316474 316474 316474
       1179 316489 316489 316489 316489
       1180 316494 316494 316494 316494
       1181 316507 316507 316507 316507
       1182 316522 316522 316522 316522
       1183 316532 316532 316532 316532
       1184 316548 316548 316548 316548
       1185 316563 316563 316563 316563
       1186 316583 316583 316583 316583
       1187 316598 316598 316598 316598
       1188 316603 316603 316603 316603
       1189 316618 316618 316618 316618
       1190 316633 316633 316633 316633
       1191 316652 316652 316652 316652
       1192 316667 316667 316667 316667
       1193 316675 316675 316675 316675
       1194 316690 316690 316690 316690
       1195 316705 316705 316705 316705
       1196 316724 316724 316724 316724
       1197 316739 316739 316739 316739
       1198 316745 316745 316745 316745
       1199 316756 316756 316756 316756
       1200 316771 316771 316771 316771
       1201 316780 316780 316780 316780
       1202 316791 316791 316791 316791
       1203 316806 316806 316806 316806
       1204 316816 316816 316816 316816
       1205 316827 316827 316827 316827
       1206 316841 316841 316841 316841
       1207 316847 316847 316847 316847
       1208 316858 316858 316858 316858
       1209 316873 316873 316873 316873
       1210 316880 316880 316880 316880
       1211 316891 316891 316891 316891
       1212 316906 316906 316906 316906
       1213 316917 316917 316917 316917
       1214 316927 316927 316927 316927
       1215 316942 316942 316942 316942
       1216 316952 316952 316952 316952
       1217 316963 316963 316963 316963
       1218 316978 316978 316978 316978
       1219 316987 316987 316987 316987
       1220 316997 316997 316997 316997
       1221 317012 317012 317012 317012
       1222 317022 317022 317022 317022
       1223 317046 317046 317046 317046
       1224 317049 317049 317049 317049
       1225 317057 317057 317057 317057
       1226 317068 317068 317068 317068
       1227 317083 317083 317083 317083
       1228 317095 317095 317095 317095
       1229 317106 317106 317106 317106
       1230 317120 317120 317120 317120
       1231 317129 317129 317129 317129
       1232 317139 317139 317139 317139
       1233 317154 317154 317154 317154
       1234 317162 317162 317162 317162
       1235 317173 317173 317173 317173
       1236 317188 317188 317188 317188
       1237 317197 317197 317197 317197
       1238 317208 317208 317208 317208
       1239 317222 317222 317222 317222
       1240 317232 317232 317232 317232
       1241 317241 317241 317241 317241
       1242 317256 317256 317256 317256
       1243 317266 317266 317266 317266
       1244 317277 317277 317277 317277
       1245 317291 317291 317291 317291
       1246 317300 317300 317300 317300
       1247 317311 317311 317311 317311
       1248 317325 317325 317325 317325
       1249 317334 317334 317334 317334
       1250 317345 317345 317345 317345
       1251 317360 317360 317360 317360
       1252 317366 317366 317366 317366
       1253 317377 317377 317377 317377
       1254 317391 317391 317391 317391
       1255 317400 317400 317400 317400
       1256 317411 317411 317411 317411
       1257 317425 317425 317425 317425
       1258 317432 317432 317432 317432
       1259 317443 317443 317443 317443
       1260 317457 317457 317457 317457
       1261 317466 317466 317466 317466
       1262 317477 317477 317477 317477
       1263 317492 317492 317492 317492
       1264 317503 317503 317503 317503
       1265 317514 317514 317514 317514
       1266 317529 317529 317529 317529
       1267 317537 317537 317537 317537
       1268 317548 317548 317548 317548
       1269 317563 317563 317563 317563
       1270 317570 317570 317570 317570
       1271 317581 317581 317581 317581
       1272 317595 317595 317595 317595
       1273 317603 317603 317603 317603
       1274 317614 317614 317614 317614
       1275 317629 317629 317629 317629
       1276 317637 317637 317637 317637
       1277 317648 317648 317648 317648
       1278 317663 317663 317663 317663
       1279 317673 317673 317673 317673
       1280 317684 317684 317684 317684
       1281 317699 317699 317699 317699
       1282 317706 317706 317706 317706
       1283 317717 317717 317717 317717
       1284 317732 317732 317732 317732
       1285 317743 317743 317743 317743
       1286 317753 317753 317753 317753
       1287 317768 317768 317768 317768
       1288 317777 317777 317777 317777
       1289 317788 317788 317788 317788
       1290 317803 317803 317803 317803
       1291 317815 317815 317815 317815
       1292 317826 317826 317826 317826
       1293 317840 317840 317840 317840
       1294 317850 317850 317850 317850
       1295 317860 317860 317860 317860
       1296 317875 317875 317875 317875
       1297 317882 317882 317882 317882
       1298 317893 317893 317893 317893
       1299 317908 317908 317908 317908
       1300 317918 317918 317918 317918
       1301 317929 317929 317929 317929
       1302 317944 317944 317944 317944
       1303 317954 317954 317954 317954
       1304 317964 317964 317964 317964
       1305 317978 317978 317978 317978
       1306 317987 317987 317987 317987
       1307 317998 317998 317998 317998
       1308 318013 318013 318013 318013
       1309 318022 318022 318022 318022
       1310 318033 318033 318033 318033
       1311 318048 318048 318048 318048
       1312 318055 318055 318055 318055
       1313 318066 318066 318066 318066
       1314 318080 318080 318080 318080
       1315 318097 318097 318097 318097
       1316 318112 318112 318112 318112
       1317 318128 318128 318128 318128
       1318 318143 318143 318143 318143
       1319 318166 318166 318166 318166
       1320 318180 318180 318180 318180
       1321 318202 318202 318202 318202
       1322 318217 318217 318217 318217
       1323 318239 318239 318239 318239
       1324 318254 318254 318254 318254
       1325 318271 318271 318271 318271
       1326 318286 318286 318286 318286
       1327 318310 318310 318310 318310
       1328 318325 318325 318325 318325
       1329 318326 318326 318326 318326
       1330 318343 318343 318343 318343
       1331 318357 318357 318357 318357
       1332 318358 318358 318358 318358
       1333 318381 318381 318381 318381
       1334 318396 318396 318396 318396
       1335 318397 318397 318397 318397
       1336 318415 318415 318415 318415
       1337 318416 318416 318416 318416
       1338 318430 318430 318430 318430
       1339 318446 318446 318446 318446
       1340 318447 318447 318447 318447
       1341 318461 318461 318461 318461
       1342 318477 318477 318477 318477
       1343 318492 318492 318492 318492
       1344 318512 318512 318512 318512
       1345 318527 318527 318527 318527
       1346 318546 318546 318546 318546
       1347 318561 318561 318561 318561
       1348 318562 318562 318562 318562
       1349 318564 318564 318564 318564
       1350 318578 318578 318578 318578
       1351 318593 318593 318593 318593
       1352 318594 318594 318594 318594
       1353 318613 318613 318613 318613
       1354 318628 318628 318628 318628
       1355 318629 318629 318629 318629
       1356 318633 318633 318633 318633
       1357 318648 318648 318648 318648
       1358 318663 318663 318663 318663
       1359 318664 318664 318664 318664
       1360 318668 318668 318668 318668
       1361 318681 318681 318681 318681
       1362 318696 318696 318696 318696
       1363 318697 318697 318697 318697
       1364 318715 318715 318715 318715
       1365 318730 318730 318730 318730
       1366 318731 318731 318731 318731
       1367 318750 318750 318750 318750
       1368 318765 318765 318765 318765
       1369 318766 318766 318766 318766
       1370 318783 318783 318783 318783
       1371 318797 318797 318797 318797
       1372 318798 318798 318798 318798
       1373 318817 318817 318817 318817
       1374 318832 318832 318832 318832
       1375 318833 318833 318833 318833
       1376 318851 318851 318851 318851
       1377 318865 318865 318865 318865
       1378 318866 318866 318866 318866
       1379 318883 318883 318883 318883
       1380 318898 318898 318898 318898
       1381 318899 318899 318899 318899
       1382 318916 318916 318916 318916
       1383 318931 318931 318931 318931
       1384 318932 318932 318932 318932
       1385 318948 318948 318948 318948
       1386 318962 318962 318962 318962
       1387 318963 318963 318963 318963
       1388 318979 318979 318979 318979
       1389 318994 318994 318994 318994
       1390 318995 318995 318995 318995
       1391 319012 319012 319012 319012
       1392 319027 319027 319027 319027
       1393 319028 319028 319028 319028
       1394 319044 319044 319044 319044
       1395 319059 319059 319059 319059
       1396 319060 319060 319060 319060
       1397 319063 319063 319063 319063
       1398 319077 319077 319077 319077
       1399 319092 319092 319092 319092
       1400 319093 319093 319093 319093
       1401 319111 319111 319111 319111
       1402 319125 319125 319125 319125
       1403 319126 319126 319126 319126
       1404 319143 319143 319143 319143
       1405 319158 319158 319158 319158
       1406 319159 319159 319159 319159
       1407 319175 319175 319175 319175
       1408 319190 319190 319190 319190
       1409 319191 319191 319191 319191
       1410 319206 319206 319206 319206
       1411 319221 319221 319221 319221
       1412 319222 319222 319222 319222
       1413 319241 319241 319241 319241
       1414 319256 319256 319256 319256
       1415 319257 319257 319257 319257
       1416 319273 319273 319273 319273
       1417 319288 319288 319288 319288
       1418 319289 319289 319289 319289
       1419 319305 319305 319305 319305
       1420 319320 319320 319320 319320
       1421 319321 319321 319321 319321
       1422 319324 319324 319324 319324
       1423 319325 319325 319325 319325
       1424 319326 319326 319326 319326
       1425 319327 319327 319327 319327
       1426 319328 319328 319328 319328
       1427 319329 319329 319329 319329
       1428 319330 319330 319330 319330
       1429 319331 319331 319331 319331
       1430 319332 319332 319332 319332
       1431 319333 319333 319333 319333
       1432 319334 319334 319334 319334
       1433 319335 319335 319335 319335
       1434 319336 319336 319336 319336
       1435 319337 319337 319337 319337
       1436 319338 319338 319338 319338
       1437 319339 319339 319339 319339
       1438 319340 319340 319340 319340
       1439 319341 319341 319341 319341
       1440 319342 319342 319342 319342
       1441 319343 319343 319343 319343
       1442 319344 319344 319344 319344
       1443 319345 319345 319345 319345
       1444 319346 319346 319346 319346
       1445 319347 319347 319347 319347
       1446 319348 319348 319348 319348
       1447 319349 319349 319349 319349
       1448 319350 319350 319350 319350
       1449 319351 319351 319351 319351
       1450 319352 319352 319352 319352
       1451 319353 319353 319353 319353
       1452 319354 319354 319354 319354
       1453 319355 319355 319355 319355
       1454 319356 319356 319356 319356
       1455 319357 319357 319357 319357
       1456 319358 319358 319358 319358
       1457 319359 319359 319359 319359
       1458 319360 319360 319360 319360
       1459 319361 319361 319361 319361
       1460 319362 319362 319362 319362
       1461 319363 319363 319363 319363
       1462 319364 319364 319364 319364
       1463 319365 319365 319365 319365
       1464 319366 319366 319366 319366
       1465 319367 319367 319367 319367
       1466 319368 319368 319368 319368
       1467 319369 319369 319369 319369
       1468 319370 319370 319370 319370
       1469 319371 319371 319371 319371
       1470 319372 319372 319372 319372
       1471 319373 319373 319373 319373
       1472 319374 319374 319374 319374
       1473 319375 319375 319375 319375
       1474 319376 319376 319376 319376
       1475 319377 319377 319377 319377
       1476 319378 319378 319378 319378
       1477 319379 319379 319379 319379
       1478 319380 319380 319380 319380
       1479 319381 319381 319381 319381
       1480 319382 319382 319382 319382
       1481 319383 319383 319383 319383
       1482 319384 319384 319384 319384
       1483 319385 319385 319385 319385
       1484 319386 319386 319386 319386
       1485 319387 319387 319387 319387
       1486 319388 319388 319388 319388
       1487 319389 319389 319389 319389
       1488 319390 319390 319390 319390
       1489 319391 319391 319391 319391
       1490 319392 319392 319392 319392
       1491 319393 319393 319393 319393
       1492 319394 319394 319394 319394
       1493 319395 319395 319395 319395
       1494 319396 319396 319396 319396
       1495 319397 319397 319397 319397
       1496 319398 319398 319398 319398
       1497 319399 319399 319399 319399
       1498 319400 319400 319400 319400
       1499 319401 319401 319401 319401
       1500 319402 319402 319402 319402
       1501 319403 319403 319403 319403
       1502 319404 319404 319404 319404
       1503 319405 319405 319405 319405
       1504 319406 319406 319406 319406
       1505 319407 319407 319407 319407
       1506 319408 319408 319408 319408
       1507 319409 319409 319409 319409
       1508 319410 319410 319410 319410
       1509 319411 319411 319411 319411
       1510 319412 319412 319412 319412
       1511 319413 319413 319413 319413
       1512 319414 319414 319414 319414
       1513 319415 319415 319415 319415
       1514 319416 319416 319416 319416
       1515 319417 319417 319417 319417
       1516 319418 319418 319418 319418
       1517 319419 319419 319419 319419
       1518 319420 319420 319420 319420
       1519 319421 319421 319421 319421
       1520 319422 319422 319422 319422
       1521 319423 319423 319423 319423
       1522 319424 319424 319424 319424
       1523 319425 319425 319425 319425
       1524 319426 319426 319426 319426
       1525 319427 319427 319427 319427
       1526 319428 319428 319428 319428
       1527 319429 319429 319429 319429
       1528 319430 319430 319430 319430
       1529 319431 319431 319431 319431
       1530 319432 319432 319432 319432
       1531 319433 319433 319433 319433
       1532 319434 319434 319434 319434
       1533 319435 319435 319435 319435
       1534 319436 319436 319436 319436
       1535 319437 319437 319437 319437
       1536 319438 319438 319438 319438
       1537 319439 319439 319439 319439
       1538 319440 319440 319440 319440
       1539 319441 319441 319441 319441
       1540 319442 319442 319442 319442
       1541 319443 319443 319443 319443
       1542 319444 319444 319444 319444
       1543 319445 319445 319445 319445
       1544 319446 319446 319446 319446
       1545 319447 319447 319447 319447
       1546 319448 319448 319448 319448
       1547 319449 319449 319449 319449
       1548 319450 319450 319450 319450
       1549 319451 319451 319451 319451
       1550 319452 319452 319452 319452
       1551 319453 319453 319453 319453
       1552 319454 319454 319454 319454
       1553 319455 319455 319455 319455
       1554 319456 319456 319456 319456
       1555 319457 319457 319457 319457
       1556 319458 319458 319458 319458
       1557 319459 319459 319459 319459
       1558 319460 319460 319460 319460
       1559 319461 319461 319461 319461
       1560 319462 319462 319462 319462
       1561 319463 319463 319463 319463
       1562 319464 319464 319464 319464
       1563 319465 319465 319465 319465
       1564 319466 319466 319466 319466
       1565 319467 319467 319467 319467
       1566 319468 319468 319468 319468
       1567 319469 319469 319469 319469
       1568 319470 319470 319470 319470
       1569 319471 319471 319471 319471
       1570 319472 319472 319472 319472
       1571 319473 319473 319473 319473
       1572 319474 319474 319474 319474
       1573 319475 319475 319475 319475
       1574 319476 319476 319476 319476
       1575 319477 319477 319477 319477
       1576 319478 319478 319478 319478
       1577 319479 319479 319479 319479
       1578 319480 319480 319480 319480
       1579 319481 319481 319481 319481
       1580 319482 319482 319482 319482
       1581 319483 319483 319483 319483
       1582 319484 319484 319484 319484
       1583 319485 319485 319485 319485
       1584 319486 319486 319486 319486
       1585 319487 319487 319487 319487
       1586 319488 319488 319488 319488
       1587 319489 319489 319489 319489
       1588 319490 319490 319490 319490
       1589 319491 319491 319491 319491
       1590 319492 319492 319492 319492
       1591 319493 319493 319493 319493
       1592 319494 319494 319494 319494
       1593 319495 319495 319495 319495
       1594 319496 319496 319496 319496
       1595 319497 319497 319497 319497
       1596 319498 319498 319498 319498
       1597 319499 319499 319499 319499
       1598 319500 319500 319500 319500
       1599 319501 319501 319501 319501
       1600 319502 319502 319502 319502
       1601 319503 319503 319503 319503
       1602 319504 319504 319504 319504
       1603 319505 319505 319505 319505
       1604 319506 319506 319506 319506
       1605 319507 319507 319507 319507
       1606 319508 319508 319508 319508
       1607 319509 319509 319509 319509
       1608 319510 319510 319510 319510
       1609 319511 319511 319511 319511
       1610 319512 319512 319512 319512
       1611 319513 319513 319513 319513
       1612 319514 319514 319514 319514
       1613 319515 319515 319515 319515
       1614 319516 319516 319516 319516
       1615 319517 319517 319517 319517
       1616 319518 319518 319518 319518
       1617 319519 319519 319519 319519
       1618 319520 319520 319520 319520
       1619 319521 319521 319521 319521
       1620 319522 319522 319522 319522
       1621 319523 319523 319523 319523
       1622 319524 319524 319524 319524
       1623 319525 319525 319525 319525
       1624 319526 319526 319526 319526
       1625 319527 319527 319527 319527
       1626 319528 319528 319528 319528
       1627 319529 319529 319529 319529
       1628 319530 319530 319530 319530
       1629 319531 319531 319531 319531
       1630 319532 319532 319532 319532
       1631 319533 319533 319533 319533
       1632 319534 319534 319534 319534
       1633 319535 319535 319535 319535
       1634 319536 319536 319536 319536
       1635 319537 319537 319537 319537
       1636 319538 319538 319538 319538
       1637 319539 319539 319539 319539
       1638 319540 319540 319540 319540
       1639 319541 319541 319541 319541
       1640 319542 319542 319542 319542
       1641 319543 319543 319543 319543
       1642 319544 319544 319544 319544
       1643 319545 319545 319545 319545
       1644 319546 319546 319546 319546
       1645 319547 319547 319547 319547
       1646 319548 319548 319548 319548
       1647 319549 319549 319549 319549
       1648 319550 319550 319550 319550
       1649 319551 319551 319551 319551
       1650 319552 319552 319552 319552
       1651 319553 319553 319553 319553
       1652 319554 319554 319554 319554
       1653 319555 319555 319555 319555
       1654 319556 319556 319556 319556
       1655 319557 319557 319557 319557
       1656 319558 319558 319558 319558
       1657 319559 319559 319559 319559
       1658 319560 319560 319560 319560
       1659 319561 319561 319561 319561
[...]
     number of failed tshell elements = 0

 S u m m a r y   F r o m   A l l  P r o c e s s o r s
 f a i l e d   e l e m e n t   r e p o r t  time= 4.21740E-05

 CPU     0 CPU     1 CPU     2 CPU     3                                        
 --------- --------- --------- ---------                                        
      1921        94         0         0  
         0         0         0         0  
         0         0         0         0  
         0         0         0         0  

      total number of failed solid  elements =    2015
      total number of failed beam   elements =       0
      total number of failed shell  elements =       0
      total number of failed tshell elements =       0
 Element deleted due to damage
     solid element 36152  failed at time  4.2221E-05
 f a i l e d   e l e m e n t   r e p o r t  time=  4.2221E-05
     number of failed solid  elements = 1922
     number of failed beam   elements = 0
     number of failed shell  elements = 0
     number of failed tshell elements = 0

 S u m m a r y   F r o m   A l l  P r o c e s s o r s
 f a i l e d   e l e m e n t   r e p o r t  time= 4.22211E-05

 CPU     0 CPU     1 CPU     2 CPU     3                                        
 --------- --------- --------- ---------                                        
      1922        94         0         0  
         0         0         0         0  
         0         0         0         0  
         0         0         0         0  

      total number of failed solid  elements =    2016
      total number of failed beam   elements =       0
      total number of failed shell  elements =       0
      total number of failed tshell elements =       0
   35000 t 4.2243E-05 dt 1.24E-09 flush i/o buffers            04/08/22 11:29:20
   35142 t 4.2419E-05 dt 1.24E-09 write d3plot file            04/08/22 11:29:21
 f a i l e d   e l e m e n t   r e p o r t  time=  4.2834E-05
     number of failed solid  elements = 1922
     number of failed beam   elements = 0
     number of failed shell  elements = 0
     number of failed tshell elements = 0

 S u m m a r y   F r o m   A l l  P r o c e s s o r s
 f a i l e d   e l e m e n t   r e p o r t  time= 4.28344E-05

 CPU     0 CPU     1 CPU     2 CPU     3                                        
 --------- --------- --------- ---------                                        
      1922        95         0         0  
         0         0         0         0  
         0         0         0         0  
         0         0         0         0  

      total number of failed solid  elements =    2017
      total number of failed beam   elements =       0
      total number of failed shell  elements =       0
      total number of failed tshell elements =       0
 f a i l e d   e l e m e n t   r e p o r t  time=  4.2899E-05
     number of failed solid  elements = 1922
     number of failed beam   elements = 0
     number of failed shell  elements = 0
     number of failed tshell elements = 0

 S u m m a r y   F r o m   A l l  P r o c e s s o r s
 f a i l e d   e l e m e n t   r e p o r t  time= 4.28988E-05

 CPU     0 CPU     1 CPU     2 CPU     3                                        
 --------- --------- --------- ---------                                        
      1922        96         0         0  
         0         0         0         0  
         0         0         0         0  
         0         0         0         0  

      total number of failed solid  elements =    2018
      total number of failed beam   elements =       0
      total number of failed shell  elements =       0
      total number of failed tshell elements =       0
 Element deleted due to damage
      node  number 304482 deleted at time  4.3144E-05
      node  number 304483 deleted at time  4.3144E-05
      node  number 17008 deleted at time  4.3144E-05
      node  number 17051 deleted at time  4.3144E-05
     solid element 35026  failed at time  4.3144E-05
 f a i l e d   e l e m e n t   r e p o r t  time=  4.3144E-05
     number of failed solid  elements = 1923
     number of failed beam   elements = 0
     number of failed shell  elements = 0
     number of failed tshell elements = 0

 S u m m a r y   F r o m   A l l  P r o c e s s o r s
 f a i l e d   e l e m e n t   r e p o r t  time= 4.31441E-05

 CPU     0 CPU     1 CPU     2 CPU     3                                        
 --------- --------- --------- ---------                                        
      1923        96         0         0  
         0         0         0         0  
         0         0         0         0  
         0         0         0         0  

      total number of failed solid  elements =    2019
      total number of failed beam   elements =       0
      total number of failed shell  elements =       0
      total number of failed tshell elements =       0
 f a i l e d   e l e m e n t   r e p o r t  time=  4.4395E-05
     number of failed solid  elements = 1923
     number of failed beam   elements = 0
     number of failed shell  elements = 0
     number of failed tshell elements = 0

 S u m m a r y   F r o m   A l l  P r o c e s s o r s
 f a i l e d   e l e m e n t   r e p o r t  time= 4.43955E-05

 CPU     0 CPU     1 CPU     2 CPU     3                                        
 --------- --------- --------- ---------                                        
      1923        97         0         0  
         0         0         0         0  
         0         0         0         0  
         0         0         0         0  

      total number of failed solid  elements =    2020
      total number of failed beam   elements =       0
      total number of failed shell  elements =       0
      total number of failed tshell elements =       0
   36772 t 4.4439E-05 dt 1.24E-09 write d3plot file            04/08/22 11:29:32
 Element deleted due to damage
      node  number 300586 deleted at time  4.4508E-05
      node  number 300587 deleted at time  4.4508E-05
      node  number 15481 deleted at time  4.4508E-05
      node  number 15535 deleted at time  4.4508E-05
     solid element 32601  failed at time  4.4508E-05
 f a i l e d   e l e m e n t   r e p o r t  time=  4.4508E-05
     number of failed solid  elements = 1924
     number of failed beam   elements = 0
     number of failed shell  elements = 0
     number of failed tshell elements = 0

 S u m m a r y   F r o m   A l l  P r o c e s s o r s
 f a i l e d   e l e m e n t   r e p o r t  time= 4.45082E-05

 CPU     0 CPU     1 CPU     2 CPU     3                                        
 --------- --------- --------- ---------                                        
      1924        97         0         0  
         0         0         0         0  
         0         0         0         0  
         0         0         0         0  

      total number of failed solid  elements =    2021
      total number of failed beam   elements =       0
      total number of failed shell  elements =       0
      total number of failed tshell elements =       0
 f a i l e d   e l e m e n t   r e p o r t  time=  4.4990E-05
     number of failed solid  elements = 1924
     number of failed beam   elements = 0
     number of failed shell  elements = 0
     number of failed tshell elements = 0

 S u m m a r y   F r o m   A l l  P r o c e s s o r s
 f a i l e d   e l e m e n t   r e p o r t  time= 4.49902E-05

 CPU     0 CPU     1 CPU     2 CPU     3                                        
 --------- --------- --------- ---------                                        
      1924        98         0         0  
         0         0         0         0  
         0         0         0         0  
         0         0         0         0  

      total number of failed solid  elements =    2022
      total number of failed beam   elements =       0
      total number of failed shell  elements =       0
      total number of failed tshell elements =       0
 Element deleted due to damage
      node  number 300649 deleted at time  4.5418E-05
      node  number 18258 deleted at time  4.5418E-05
     solid element 34762  failed at time  4.5418E-05
 f a i l e d   e l e m e n t   r e p o r t  time=  4.5418E-05
     number of failed solid  elements = 1925
     number of failed beam   elements = 0
     number of failed shell  elements = 0
     number of failed tshell elements = 0

 S u m m a r y   F r o m   A l l  P r o c e s s o r s
 f a i l e d   e l e m e n t   r e p o r t  time= 4.54176E-05

 CPU     0 CPU     1 CPU     2 CPU     3                                        
 --------- --------- --------- ---------                                        
      1925        98         0         0  
         0         0         0         0  
         0         0         0         0  
         0         0         0         0  

      total number of failed solid  elements =    2023
      total number of failed beam   elements =       0
      total number of failed shell  elements =       0
      total number of failed tshell elements =       0
   38403 t 4.6460E-05 dt 1.24E-09 write d3plot file            04/08/22 11:29:43
 f a i l e d   e l e m e n t   r e p o r t  time=  4.7640E-05
     number of failed solid  elements = 1925
     number of failed beam   elements = 0
     number of failed shell  elements = 0
     number of failed tshell elements = 0

 S u m m a r y   F r o m   A l l  P r o c e s s o r s
 f a i l e d   e l e m e n t   r e p o r t  time= 4.76403E-05

 CPU     0 CPU     1 CPU     2 CPU     3                                        
 --------- --------- --------- ---------                                        
      1925        99         0         0  
         0         0         0         0  
         0         0         0         0  
         0         0         0         0  

      total number of failed solid  elements =    2024
      total number of failed beam   elements =       0
      total number of failed shell  elements =       0
      total number of failed tshell elements =       0
 Element deleted due to damage
     solid element 31047  failed at time  4.8413E-05
 f a i l e d   e l e m e n t   r e p o r t  time=  4.8413E-05
     number of failed solid  elements = 1926
     number of failed beam   elements = 0
     number of failed shell  elements = 0
     number of failed tshell elements = 0

 S u m m a r y   F r o m   A l l  P r o c e s s o r s
 f a i l e d   e l e m e n t   r e p o r t  time= 4.84135E-05

 CPU     0 CPU     1 CPU     2 CPU     3                                        
 --------- --------- --------- ---------                                        
      1926        99         0         0  
         0         0         0         0  
         0         0         0         0  
         0         0         0         0  

      total number of failed solid  elements =    2025
      total number of failed beam   elements =       0
      total number of failed shell  elements =       0
      total number of failed tshell elements =       0
   40000 t 4.8438E-05 dt 1.24E-09 flush i/o buffers            04/08/22 11:29:53
   40033 t 4.8479E-05 dt 1.24E-09 write d3plot file            04/08/22 11:29:53
   41664 t 5.0500E-05 dt 1.24E-09 write d3plot file            04/08/22 11:30:03
   43294 t 5.2519E-05 dt 1.24E-09 write d3plot file            04/08/22 11:30:13
 f a i l e d   e l e m e n t   r e p o r t  time=  5.4316E-05
     number of failed solid  elements = 1926
     number of failed beam   elements = 0
     number of failed shell  elements = 0
     number of failed tshell elements = 0

 S u m m a r y   F r o m   A l l  P r o c e s s o r s
 f a i l e d   e l e m e n t   r e p o r t  time= 5.43160E-05

 CPU     0 CPU     1 CPU     2 CPU     3                                        
 --------- --------- --------- ---------                                        
      1926       100         0         0  
         0         0         0         0  
         0         0         0         0  
         0         0         0         0  

      total number of failed solid  elements =    2026
      total number of failed beam   elements =       0
      total number of failed shell  elements =       0
      total number of failed tshell elements =       0
   44924 t 5.4539E-05 dt 1.24E-09 write d3plot file            04/08/22 11:30:23
   45000 t 5.4633E-05 dt 1.24E-09 flush i/o buffers            04/08/22 11:30:23
   46555 t 5.6560E-05 dt 1.24E-09 write d3plot file            04/08/22 11:30:32
   48185 t 5.8579E-05 dt 1.24E-09 write d3plot file            04/08/22 11:30:42
 
 *** termination time reached ***
   49331 t 6.0000E-05 dt 1.24E-09 write d3plot file            04/08/22 11:30:48

 N o r m a l    t e r m i n a t i o n                          04/08/22 11:30:48

 S t o r a g e   a l l o c a t i o n   

 Memory required to complete solution   :     251K
 Additional dynamically allocated memory:      30M
                                   Total:      31M


 P r o c e s s o r   #         0

 T i m i n g   i n f o r m a t i o n
                        CPU(seconds)   %CPU  Clock(seconds) %Clock
  ----------------------------------------------------------------
  Keyword Processing ... 1.9613E-01    0.08     3.7901E-01    0.14
    KW Reading ......... 6.9670E-02    0.03     1.0302E-01    0.04
    KW Writing ......... 4.3898E-02    0.02     9.5443E-02    0.04
  MPP Decomposition .... 3.8703E-01    0.15     7.0212E-01    0.26
    Init Proc .......... 2.8151E-01    0.11     5.0636E-01    0.19
    Decomposition ...... 1.5588E-02    0.01     4.0810E-02    0.02
    Translation ........ 8.9813E-02    0.03     1.5483E-01    0.06
  Initialization ....... 1.2143E-01    0.05     2.5847E-01    0.10
    Init Proc Phase 1 .. 9.3091E-02    0.04     1.2054E-01    0.05
    Init Proc Phase 2 .. 1.1251E-02    0.00     3.8188E-02    0.01
  Init solver .......... 2.3781E-03    0.00     4.4690E-03    0.00
  Element processing ... 8.2484E+01   31.90     8.2934E+01   31.11
    Solids ............. 7.9272E+01   30.65     7.9675E+01   29.89
    E Other ............ 1.6424E-01    0.06     1.6486E-01    0.06
  Binary databases ..... 4.3721E-01    0.17     4.7023E-01    0.18
  ASCII database ....... 3.2023E+00    1.24     9.0640E+00    3.40
  Contact algorithm .... 5.4632E+01   21.13     5.4913E+01   20.60
    Interf. ID         3 1.5034E+01    5.81     1.5117E+01    5.67
    Interf. ID         2 3.2591E+01   12.60     3.2748E+01   12.28
  Rigid Bodies ......... 1.4980E-01    0.06     1.5280E-01    0.06
  DEM .................. 1.5529E+01    6.00     1.5595E+01    5.85
    DEM self contact ... 1.5099E+01    5.84     1.5164E+01    5.69
  Time step size ....... 7.5463E+01   29.18     7.5784E+01   28.43
  Group force file ..... 4.0753E-02    0.02     4.9483E-02    0.02
  Others ............... 2.8542E+00    1.10     2.9183E+00    1.09
    Force Sharing ...... 2.5383E+00    0.98     2.5471E+00    0.96
  Misc. 1 .............. 1.6759E+01    6.48     1.6882E+01    6.33
    Scale Masses ....... 1.5569E-02    0.01     1.5606E-02    0.01
    Force Constraints .. 2.4054E-02    0.01     2.4194E-02    0.01
    Force to Accel ..... 1.6734E+00    0.65     1.6757E+00    0.63
    Constraint Sharing . 2.5755E-02    0.01     2.6106E-02    0.01
    Update RB nodes .... 3.3098E-02    0.01     3.4029E-02    0.01
  Misc. 2 .............. 4.1543E+00    1.61     4.1739E+00    1.57
  Misc. 3 .............. 1.0716E+00    0.41     1.1562E+00    0.43
  Misc. 4 .............. 1.1196E+00    0.43     1.1362E+00    0.43
    Timestep Init ...... 8.3228E-01    0.32     8.3471E-01    0.31
    Apply Loads ........ 2.3523E-01    0.09     2.4486E-01    0.09
  ----------------------------------------------------------------
  T o t a l s            2.5860E+02  100.00     2.6657E+02  100.00


 A v e r a g e s

 T i m i n g   i n f o r m a t i o n
                        CPU(seconds)   %CPU  Clock(seconds) %Clock
  ----------------------------------------------------------------
  Keyword Processing ... 3.2976E-01    0.13     3.7897E-01    0.14
    KW Reading ......... 1.7418E-02    0.01     2.5754E-02    0.01
    KW Writing ......... 1.0975E-02    0.00     2.3861E-02    0.01
  MPP Decomposition .... 5.6853E-01    0.22     7.0005E-01    0.26
    Init Proc .......... 4.4849E-01    0.17     5.0639E-01    0.19
    Decomposition ...... 3.2406E-02    0.01     4.0831E-02    0.02
    Translation ........ 8.7553E-02    0.03     1.5275E-01    0.06
  Initialization ....... 1.4815E-01    0.06     2.5963E-01    0.10
    Init Proc Phase 1 .. 9.7087E-02    0.04     1.2113E-01    0.05
    Init Proc Phase 2 .. 1.2040E-02    0.00     3.8188E-02    0.01
  Init solver .......... 1.9152E-03    0.00     5.4310E-03    0.00
  Element processing ... 1.0998E+02   41.77     1.1056E+02   41.48
    Solids ............. 1.0570E+02   40.14     1.0623E+02   39.85
    E Other ............ 1.1511E-01    0.04     1.1551E-01    0.04
  Binary databases ..... 4.5580E-01    0.17     4.8110E-01    0.18
  ASCII database ....... 2.4174E+00    0.92     3.8962E+00    1.46
  Contact algorithm .... 5.2359E+01   19.88     5.2632E+01   19.74
    Interf. ID         3 1.3663E+01    5.19     1.3739E+01    5.15
    Interf. ID         2 3.1582E+01   11.99     3.1737E+01   11.91
  Rigid Bodies ......... 1.8923E-01    0.07     1.9276E-01    0.07
  DEM .................. 1.6211E+01    6.16     1.6284E+01    6.11
    DEM self contact ... 1.5740E+01    5.98     1.5813E+01    5.93
  Time step size ....... 4.8129E+01   18.28     4.8337E+01   18.13
  Group force file ..... 4.2575E-02    0.02     5.1534E-02    0.02
  Others ............... 3.0546E+00    1.16     3.1103E+00    1.17
    Force Sharing ...... 2.7044E+00    1.03     2.7148E+00    1.02
  Misc. 1 .............. 1.8001E+01    6.84     1.8112E+01    6.79
    Scale Masses ....... 1.9621E-02    0.01     1.9828E-02    0.01
    Force Constraints .. 2.8844E-02    0.01     2.9054E-02    0.01
    Force to Accel ..... 1.6809E+00    0.64     1.6835E+00    0.63
    Constraint Sharing . 3.1554E-02    0.01     3.1843E-02    0.01
    Update RB nodes .... 3.5595E-02    0.01     3.8375E-02    0.01
  Misc. 2 .............. 3.4083E+00    1.29     3.4240E+00    1.28
  Misc. 3 .............. 7.0440E+00    2.68     7.1464E+00    2.68
  Misc. 4 .............. 9.8101E-01    0.37     9.9729E-01    0.37
    Timestep Init ...... 6.9994E-01    0.27     7.0209E-01    0.26
    Apply Loads ........ 2.2425E-01    0.09     2.3332E-01    0.09
  ----------------------------------------------------------------
  T o t a l s            2.6332E+02  100.00     2.6657E+02  100.00

 Problem time       =    6.0000E-05
 Problem cycle      =     49331
 Total CPU time     =       263 seconds (   0 hours  4 minutes 23 seconds)
 CPU time per zone cycle  =        505.080 nanoseconds
 Clock time per zone cycle=        510.115 nanoseconds

 Parallel execution with      4 MPP proc
 NLQ used/max                64/    64

  C P U   T i m i n g   i n f o r m a t i o n

  Processor   Hostname                              CPU/Avg_CPU  CPU(seconds)
  ---------------------------------------------------------------------------
  #       0   compute-0-0                               0.98205   2.5865E+02
  #       1   compute-0-0                               1.00567   2.6487E+02
  #       2   compute-0-0                               1.00612   2.6499E+02
  #       3   compute-0-0                               1.00616   2.6500E+02
  ---------------------------------------------------------------------------
  T o t a l s                                                     1.0535E+03


 Start time   04/08/2022 11:26:22  
 End time     04/08/2022 11:30:48  
 Elapsed time     266 seconds for   49331 cycles using     4 MPP procs
             (      0 hour   4 minutes 26 seconds)

 N o r m a l    t e r m i n a t i o n                          04/08/22 11:30:48
   49331 t 6.0000E-05 dt 1.24E-09 flush i/o buffers            04/08/22 11:30:48
