      Date: 04/08/2022      Time: 11:26:22  

     ___________________________________________________
     |                                                 |
     |  Livermore Software Technology, LLC             |
     |                                                 |
     |  7374 Las Positas Road                          |
     |  Livermore, CA 94551                            |
     |  Tel: (925) 449-2500  Fax: (925) 449-2507       |
     |  www.lstc.com                                   |
     |_________________________________________________|
     |                                                 |
     |  LS-DYNA, A Program for Nonlinear Dynamic       |
     |  Analysis of Structures in Three Dimensions     |
     |  Version : mpp d R12.0.0   Date: 06/19/2020     |
     |  Revision: 148931          Time: 17:26:40       |
     |                                                 |
     |  Features enabled in this version:              |
     |    Distributed Memory Parallel                  |
     |    CESE CHEMISTRY EM ICFD STOCHASTIC_PARTICLES  |
     |    FFTW (multi-dimensional FFTW Library)        |
     |    ANSYS License (ANSYS202)                     |
     |    BigID  option                                |
     |                                                 |
     |  Licensed to:                                   |
     |  Issued by  : Pascale.SaneGuttin_02092022       |
     |                                                 |
     |  Platform   : Intel-MPI 2018 Xeon64             |
     |  OS Level   : Linux CentOS 6.5 uom              |
     |  Compiler   : Intel Fortran Compiler 16.0 AVX-2 |
     |  Hostname   : compute-0-0                       |
     |  Precision  : Double precision (I8R8)           |
     |  SVN Version: 148978                            |
     |                                                 |
     |  Unauthorized use infringes LST copyrights      |
     |_________________________________________________|


 Input file: DynaOpt.key                                                                     

 The native file format       : 64-bit small endian

 LS-DYNA will perform a structural only analysis 

 allocating  memory to   100000000 d     1985258 hex ownership chunk
 contracting memory to           7 d     1990526 material sort chunk
 expanding   memory to          12 d     2051077 nodal force sharing lists 1
 expanding   memory to          18 d     2033329 mat scratch
 expanding   memory to          19 d     3099383 tied nodes scratch
 expanding   memory to          22 d     3099383 tied node scratch
 contracting memory to          18 d     3099383 nodal rigid body scratch
 expanding   memory to        1298 d     3099383 DES sld2des scratch
 expanding   memory to       17386 d     3099383 DES sld2des scratch
 contracting memory to        2450 d     3099383 DES sld2des scratch
 contracting memory to          18 d     3099383 spring/damper scratch
 contracting memory to           1 d     2090277 Performing Decomposition -- Phase 3
 LS-DYNA keyword deck by LS-PrePost                                      
                         ls-dyna mpp.148931 d           date 06/19/2020
 expanding   memory to        4305 d     2090277 material, node and element data
 expanding   memory to        4399 d     2090296 mat add general damage 0
 expanding   memory to        4459 d     2090296 material added airbag porosity leakage 
 expanding   memory to        4477 d     2090296 material properties
 expanding   memory to        4495 d     2126873 element data for composite material
 expanding   memory to        4510 d     2439598 gradient of damage data
 expanding   memory to       16620 d     2479117 user control for contact interfaces
 contracting memory to       16606 d     2479117 thermal expansion 0
 expanding   memory to       16612 d     2479117 state of charge expansion 0
 expanding   memory to       16614 d     2479117 cross-sectional force definitions 0
 expanding   memory to       25804 d     2479153 temp index array for node sorting
 contracting memory to       16614 d     2479153 just because?
 expanding   memory to       19248 d     2497551 arbitrary element numbering input
 contracting memory to       16634 d    24923297 spc cards
 contracting memory to       16621 d    24923297 d3thdt storage
 expanding   memory to       16622 d    25004209 process element material data
 expanding   memory to       18623 d    25004203 load curve data
 contracting memory to       16629 d    25004203 user_define_loading_set
 expanding   memory to       16829 d    25004203 regularize time history data
 contracting memory to       16633 d    25004203 *DEFINE_ELEMENT_DEATH
 expanding   memory to       16888 d    24986514 contact interfaces
 expanding   memory to       36268 d    24986514 implicit contact 1
 expanding   memory to       57328 d    24986514 implicit contact 2
 contracting memory to       17888 d    25231785 contact segment data 1
 expanding   memory to       66530 d    25464177 contact segment data 3
 expanding   memory to      150850 d    25348233 read contacts, eroding check
 expanding   memory to      232479 d    25348233 eroding neighbors 2
 expanding   memory to      250918 d    25348233 eroding neighbors
 contracting memory to      103408 d    25765699 contact definition
 expanding   memory to      103414 d    25903609 contact history
 expanding   memory to      103468 d    25979597 rigid body
 expanding   memory to      103486 d    25980211 rbe2 scratch
 contracting memory to      103472 d    26038187 contact friction
 expanding   memory to      103562 d    26038193 joints
 expanding   memory to      105622 d    26038193 de sld2des
 expanding   memory to      105662 d    26046095 discrete elements regions
 expanding   memory to      105762 d    26235647 rigid bodies for disp. termination
 
 *** Warning 40859 (SOL+859)
     Cannot find elements of slave segment of interface 2
 deleted segment ID          n1          n2          n3          n4
       1 310647 310647 310647 310647
       2 310648 310648 310648 310648
       3 310652 310652 310652 310652
       4 310659 310659 310659 310659
       5 310662 310662 310662 310662
       6 310669 310669 310669 310669
       7 310670 310670 310670 310670
       8 310678 310678 310678 310678
       9 310679 310679 310679 310679
       10 310683 310683 310683 310683
       11 310691 310691 310691 310691
       12 310694 310694 310694 310694
       13 310701 310701 310701 310701
       14 310703 310703 310703 310703
       15 310705 310705 310705 310705
       16 310712 310712 310712 310712
       17 310713 310713 310713 310713
       18 310717 310717 310717 310717
       19 310725 310725 310725 310725
       20 310728 310728 310728 310728
       21 310735 310735 310735 310735
       22 310738 310738 310738 310738
       23 310745 310745 310745 310745
       24 310746 310746 310746 310746
       25 310750 310750 310750 310750
       26 310758 310758 310758 310758
       27 310761 310761 310761 310761
       28 310768 310768 310768 310768
       29 310770 310770 310770 310770
       30 310777 310777 310777 310777
       31 310778 310778 310778 310778
       32 310782 310782 310782 310782
       33 310790 310790 310790 310790
       34 310793 310793 310793 310793
       35 310800 310800 310800 310800
       36 310803 310803 310803 310803
       37 310804 310804 310804 310804
       38 310812 310812 310812 310812
       39 310813 310813 310813 310813
       40 310817 310817 310817 310817
       41 310825 310825 310825 310825
       42 310828 310828 310828 310828
       43 310835 310835 310835 310835
       44 310838 310838 310838 310838
       45 310845 310845 310845 310845
       46 310846 310846 310846 310846
       47 310850 310850 310850 310850
       48 310858 310858 310858 310858
       49 310861 310861 310861 310861
       50 310868 310868 310868 310868
       51 310870 310870 310870 310870
       52 310878 310878 310878 310878
       53 310879 310879 310879 310879
       54 310883 310883 310883 310883
       55 310891 310891 310891 310891
       56 310894 310894 310894 310894
       57 310901 310901 310901 310901
       58 310905 310905 310905 310905
       59 310912 310912 310912 310912
       60 310913 310913 310913 310913
       61 310917 310917 310917 310917
       62 310925 310925 310925 310925
       63 310928 310928 310928 310928
       64 310935 310935 310935 310935
       65 310938 310938 310938 310938
       66 310945 310945 310945 310945
       67 310946 310946 310946 310946
       68 310950 310950 310950 310950
       69 310958 310958 310958 310958
       70 310961 310961 310961 310961
       71 310968 310968 310968 310968
       72 310970 310970 310970 310970
       73 310977 310977 310977 310977
       74 310978 310978 310978 310978
       75 310982 310982 310982 310982
       76 310990 310990 310990 310990
       77 310993 310993 310993 310993
       78 311000 311000 311000 311000
       79 311002 311002 311002 311002
       80 311003 311003 311003 311003
       81 311008 311008 311008 311008
       82 311010 311010 311010 311010
       83 311011 311011 311011 311011
       84 311015 311015 311015 311015
       85 311023 311023 311023 311023
       86 311026 311026 311026 311026
       87 311033 311033 311033 311033
       88 311036 311036 311036 311036
       89 311042 311042 311042 311042
       90 311044 311044 311044 311044
       91 311045 311045 311045 311045
       92 311049 311049 311049 311049
       93 311057 311057 311057 311057
       94 311060 311060 311060 311060
       95 311067 311067 311067 311067
       96 311070 311070 311070 311070
       97 311073 311073 311073 311073
       98 311077 311077 311077 311077
       99 311081 311081 311081 311081
       100 311089 311089 311089 311089
       101 311092 311092 311092 311092
       102 311099 311099 311099 311099
       103 311103 311103 311103 311103
       104 311109 311109 311109 311109
       105 311111 311111 311111 311111
       106 311112 311112 311112 311112
       107 311116 311116 311116 311116
       108 311123 311123 311123 311123
       109 311126 311126 311126 311126
       110 311133 311133 311133 311133
       111 311136 311136 311136 311136
       112 311141 311141 311141 311141
       113 311142 311142 311142 311142
       114 311144 311144 311144 311144
       115 311148 311148 311148 311148
       116 311156 311156 311156 311156
       117 311159 311159 311159 311159
       118 311166 311166 311166 311166
       119 311170 311170 311170 311170
       120 311175 311175 311175 311175
       121 311176 311176 311176 311176
       122 311178 311178 311178 311178
       123 311181 311181 311181 311181
       124 311189 311189 311189 311189
       125 311192 311192 311192 311192
       126 311199 311199 311199 311199
       127 311202 311202 311202 311202
       128 311208 311208 311208 311208
       129 311210 311210 311210 311210
       130 311211 311211 311211 311211
       131 311212 311212 311212 311212
       132 311215 311215 311215 311215
       133 311223 311223 311223 311223
       134 311226 311226 311226 311226
       135 311233 311233 311233 311233
       136 311236 311236 311236 311236
       137 311241 311241 311241 311241
       138 311243 311243 311243 311243
       139 311244 311244 311244 311244
       140 311245 311245 311245 311245
       141 311248 311248 311248 311248
       142 311256 311256 311256 311256
       143 311259 311259 311259 311259
       144 311266 311266 311266 311266
       145 311269 311269 311269 311269
       146 311272 311272 311272 311272
       147 311274 311274 311274 311274
       148 311275 311275 311275 311275
       149 311276 311276 311276 311276
       150 311278 311278 311278 311278
       151 311286 311286 311286 311286
       152 311289 311289 311289 311289
       153 311296 311296 311296 311296
       154 311299 311299 311299 311299
       155 311304 311304 311304 311304
       156 311306 311306 311306 311306
       157 311307 311307 311307 311307
       158 311308 311308 311308 311308
       159 311311 311311 311311 311311
       160 311319 311319 311319 311319
       161 311322 311322 311322 311322
       162 311329 311329 311329 311329
       163 311334 311334 311334 311334
       164 311339 311339 311339 311339
       165 311341 311341 311341 311341
       166 311342 311342 311342 311342
       167 311343 311343 311343 311343
       168 311346 311346 311346 311346
       169 311354 311354 311354 311354
       170 311357 311357 311357 311357
       171 311364 311364 311364 311364
       172 311366 311366 311366 311366
       173 311372 311372 311372 311372
       174 311374 311374 311374 311374
       175 311375 311375 311375 311375
       176 311376 311376 311376 311376
       177 311379 311379 311379 311379
       178 311387 311387 311387 311387
       179 311390 311390 311390 311390
       180 311397 311397 311397 311397
       181 311401 311401 311401 311401
       182 311407 311407 311407 311407
       183 311409 311409 311409 311409
       184 311410 311410 311410 311410
       185 311411 311411 311411 311411
       186 311414 311414 311414 311414
       187 311422 311422 311422 311422
       188 311425 311425 311425 311425
       189 311431 311431 311431 311431
       190 311437 311437 311437 311437
       191 311443 311443 311443 311443
       192 311445 311445 311445 311445
       193 311446 311446 311446 311446
       194 311447 311447 311447 311447
       195 311450 311450 311450 311450
       196 311458 311458 311458 311458
       197 311461 311461 311461 311461
       198 311468 311468 311468 311468
       199 311471 311471 311471 311471
       200 311477 311477 311477 311477
       201 311479 311479 311479 311479
       202 311480 311480 311480 311480
       203 311481 311481 311481 311481
       204 311484 311484 311484 311484
       205 311492 311492 311492 311492
       206 311493 311493 311493 311493
       207 311495 311495 311495 311495
       208 311501 311501 311501 311501
       209 311503 311503 311503 311503
       210 311509 311509 311509 311509
       211 311511 311511 311511 311511
       212 311512 311512 311512 311512
       213 311513 311513 311513 311513
       214 311516 311516 311516 311516
       215 311524 311524 311524 311524
       216 311525 311525 311525 311525
       217 311527 311527 311527 311527
       218 311533 311533 311533 311533
       219 311536 311536 311536 311536
       220 311542 311542 311542 311542
       221 311544 311544 311544 311544
       222 311545 311545 311545 311545
       223 311546 311546 311546 311546
       224 311549 311549 311549 311549
       225 311557 311557 311557 311557
       226 311558 311558 311558 311558
       227 311560 311560 311560 311560
       228 311567 311567 311567 311567
       229 311574 311574 311574 311574
       230 311578 311578 311578 311578
       231 311580 311580 311580 311580
       232 311581 311581 311581 311581
       233 311582 311582 311582 311582
       234 311585 311585 311585 311585
       235 311593 311593 311593 311593
       236 311594 311594 311594 311594
       237 311596 311596 311596 311596
       238 311602 311602 311602 311602
       239 311604 311604 311604 311604
       240 311609 311609 311609 311609
       241 311610 311610 311610 311610
       242 311612 311612 311612 311612
       243 311613 311613 311613 311613
       244 311614 311614 311614 311614
       245 311617 311617 311617 311617
       246 311625 311625 311625 311625
       247 311626 311626 311626 311626
       248 311628 311628 311628 311628
       249 311635 311635 311635 311635
       250 311639 311639 311639 311639
       251 311643 311643 311643 311643
       252 311645 311645 311645 311645
       253 311647 311647 311647 311647
       254 311648 311648 311648 311648
       255 311649 311649 311649 311649
       256 311652 311652 311652 311652
       257 311660 311660 311660 311660
       258 311661 311661 311661 311661
       259 311663 311663 311663 311663
       260 311670 311670 311670 311670
       261 311672 311672 311672 311672
       262 311676 311676 311676 311676
       263 311678 311678 311678 311678
       264 311680 311680 311680 311680
       265 311681 311681 311681 311681
       266 311682 311682 311682 311682
       267 311685 311685 311685 311685
       268 311693 311693 311693 311693
       269 311694 311694 311694 311694
       270 311696 311696 311696 311696
       271 311703 311703 311703 311703
       272 311709 311709 311709 311709
       273 311710 311710 311710 311710
       274 311712 311712 311712 311712
       275 311713 311713 311713 311713
       276 311714 311714 311714 311714
       277 311717 311717 311717 311717
       278 311725 311725 311725 311725
       279 311726 311726 311726 311726
       280 311728 311728 311728 311728
       281 311735 311735 311735 311735
       282 311742 311742 311742 311742
       283 311743 311743 311743 311743
       284 311745 311745 311745 311745
       285 311746 311746 311746 311746
       286 311747 311747 311747 311747
       287 311750 311750 311750 311750
       288 311758 311758 311758 311758
       289 311759 311759 311759 311759
       290 311761 311761 311761 311761
       291 311768 311768 311768 311768
       292 311770 311770 311770 311770
       293 311778 311778 311778 311778
       294 311779 311779 311779 311779
       295 311781 311781 311781 311781
       296 311782 311782 311782 311782
       297 311785 311785 311785 311785
       298 311793 311793 311793 311793
       299 311794 311794 311794 311794
       300 311796 311796 311796 311796
       301 311803 311803 311803 311803
       302 311810 311810 311810 311810
       303 311811 311811 311811 311811
       304 311813 311813 311813 311813
       305 311814 311814 311814 311814
       306 311815 311815 311815 311815
       307 311818 311818 311818 311818
       308 311826 311826 311826 311826
       309 311827 311827 311827 311827
       310 311829 311829 311829 311829
       311 311836 311836 311836 311836
       312 311838 311838 311838 311838
       313 311846 311846 311846 311846
       314 311847 311847 311847 311847
       315 311849 311849 311849 311849
       316 311850 311850 311850 311850
       317 311851 311851 311851 311851
       318 311854 311854 311854 311854
       319 311862 311862 311862 311862
       320 311863 311863 311863 311863
       321 311865 311865 311865 311865
       322 311872 311872 311872 311872
       323 311880 311880 311880 311880
       324 311881 311881 311881 311881
       325 311883 311883 311883 311883
       326 311884 311884 311884 311884
       327 311885 311885 311885 311885
       328 311887 311887 311887 311887
       329 311895 311895 311895 311895
       330 311896 311896 311896 311896
       331 311897 311897 311897 311897
       332 311904 311904 311904 311904
       333 311912 311912 311912 311912
       334 311913 311913 311913 311913
       335 311915 311915 311915 311915
       336 311916 311916 311916 311916
       337 311917 311917 311917 311917
       338 311920 311920 311920 311920
       339 311928 311928 311928 311928
       340 311929 311929 311929 311929
       341 311931 311931 311931 311931
       342 311938 311938 311938 311938
       343 311944 311944 311944 311944
       344 311945 311945 311945 311945
       345 311947 311947 311947 311947
       346 311948 311948 311948 311948
       347 311952 311952 311952 311952
       348 311960 311960 311960 311960
       349 311961 311961 311961 311961
       350 311963 311963 311963 311963
       351 311970 311970 311970 311970
       352 311977 311977 311977 311977
       353 311978 311978 311978 311978
       354 311980 311980 311980 311980
       355 311983 311983 311983 311983
       356 311985 311985 311985 311985
       357 311993 311993 311993 311993
       358 311994 311994 311994 311994
       359 311996 311996 311996 311996
       360 312003 312003 312003 312003
       361 312012 312012 312012 312012
       362 312013 312013 312013 312013
       363 312015 312015 312015 312015
       364 312016 312016 312016 312016
       365 312020 312020 312020 312020
       366 312028 312028 312028 312028
       367 312029 312029 312029 312029
       368 312031 312031 312031 312031
       369 312038 312038 312038 312038
       370 312046 312046 312046 312046
       371 312047 312047 312047 312047
       372 312049 312049 312049 312049
       373 312050 312050 312050 312050
       374 312062 312062 312062 312062
       375 312063 312063 312063 312063
       376 312065 312065 312065 312065
       377 312071 312071 312071 312071
       378 312080 312080 312080 312080
       379 312081 312081 312081 312081
       380 312083 312083 312083 312083
       381 312084 312084 312084 312084
       382 312096 312096 312096 312096
       383 312097 312097 312097 312097
       384 312099 312099 312099 312099
       385 312101 312101 312101 312101
       386 312106 312106 312106 312106
       387 312113 312113 312113 312113
       388 312114 312114 312114 312114
       389 312116 312116 312116 312116
       390 312117 312117 312117 312117
       391 312129 312129 312129 312129
       392 312130 312130 312130 312130
       393 312132 312132 312132 312132
       394 312134 312134 312134 312134
       395 312139 312139 312139 312139
       396 312146 312146 312146 312146
       397 312147 312147 312147 312147
       398 312149 312149 312149 312149
       399 312150 312150 312150 312150
       400 312162 312162 312162 312162
       401 312163 312163 312163 312163
       402 312165 312165 312165 312165
       403 312167 312167 312167 312167
       404 312172 312172 312172 312172
       405 312181 312181 312181 312181
       406 312182 312182 312182 312182
       407 312184 312184 312184 312184
       408 312185 312185 312185 312185
       409 312197 312197 312197 312197
       410 312198 312198 312198 312198
       411 312200 312200 312200 312200
       412 312202 312202 312202 312202
       413 312207 312207 312207 312207
       414 312209 312209 312209 312209
       415 312215 312215 312215 312215
       416 312216 312216 312216 312216
       417 312218 312218 312218 312218
       418 312219 312219 312219 312219
       419 312231 312231 312231 312231
       420 312232 312232 312232 312232
       421 312234 312234 312234 312234
       422 312236 312236 312236 312236
       423 312241 312241 312241 312241
       424 312249 312249 312249 312249
       425 312250 312250 312250 312250
       426 312252 312252 312252 312252
       427 312253 312253 312253 312253
       428 312265 312265 312265 312265
       429 312266 312266 312266 312266
       430 312268 312268 312268 312268
       431 312270 312270 312270 312270
       432 312275 312275 312275 312275
       433 312277 312277 312277 312277
       434 312285 312285 312285 312285
       435 312287 312287 312287 312287
       436 312300 312300 312300 312300
       437 312301 312301 312301 312301
       438 312305 312305 312305 312305
       439 312310 312310 312310 312310
       440 312312 312312 312312 312312
       441 312319 312319 312319 312319
       442 312322 312322 312322 312322
       443 312323 312323 312323 312323
       444 312335 312335 312335 312335
       445 312336 312336 312336 312336
       446 312340 312340 312340 312340
       447 312345 312345 312345 312345
       448 312352 312352 312352 312352
       449 312355 312355 312355 312355
       450 312356 312356 312356 312356
       451 312368 312368 312368 312368
       452 312369 312369 312369 312369
       453 312373 312373 312373 312373
       454 312384 312384 312384 312384
       455 312387 312387 312387 312387
       456 312399 312399 312399 312399
       457 312400 312400 312400 312400
       458 312404 312404 312404 312404
       459 312409 312409 312409 312409
       460 312416 312416 312416 312416
       461 312420 312420 312420 312420
       462 312432 312432 312432 312432
       463 312433 312433 312433 312433
       464 312437 312437 312437 312437
       465 312449 312449 312449 312449
       466 312453 312453 312453 312453
       467 312465 312465 312465 312465
       468 312466 312466 312466 312466
       469 312470 312470 312470 312470
       470 312481 312481 312481 312481
       471 312485 312485 312485 312485
       472 312496 312496 312496 312496
       473 312497 312497 312497 312497
       474 312501 312501 312501 312501
       475 312503 312503 312503 312503
       476 312508 312508 312508 312508
       477 312516 312516 312516 312516
       478 312520 312520 312520 312520
       479 312532 312532 312532 312532
       480 312533 312533 312533 312533
       481 312537 312537 312537 312537
       482 312549 312549 312549 312549
       483 312553 312553 312553 312553
       484 312565 312565 312565 312565
       485 312566 312566 312566 312566
       486 312570 312570 312570 312570
       487 312575 312575 312575 312575
       488 312577 312577 312577 312577
       489 312583 312583 312583 312583
       490 312587 312587 312587 312587
       491 312589 312589 312589 312589
       492 312599 312599 312599 312599
       493 312600 312600 312600 312600
       494 312604 312604 312604 312604
       495 312609 312609 312609 312609
       496 312612 312612 312612 312612
       497 312618 312618 312618 312618
       498 312622 312622 312622 312622
       499 312634 312634 312634 312634
       500 312635 312635 312635 312635
       501 312639 312639 312639 312639
       502 312644 312644 312644 312644
       503 312646 312646 312646 312646
       504 312652 312652 312652 312652
       505 312656 312656 312656 312656
       506 312667 312667 312667 312667
       507 312668 312668 312668 312668
       508 312672 312672 312672 312672
       509 312677 312677 312677 312677
       510 312679 312679 312679 312679
       511 312680 312680 312680 312680
       512 312686 312686 312686 312686
       513 312690 312690 312690 312690
       514 312696 312696 312696 312696
       515 312701 312701 312701 312701
       516 312702 312702 312702 312702
       517 312706 312706 312706 312706
       518 312711 312711 312711 312711
       519 312713 312713 312713 312713
       520 312719 312719 312719 312719
       521 312723 312723 312723 312723
       522 312734 312734 312734 312734
       523 312735 312735 312735 312735
       524 312739 312739 312739 312739
       525 312744 312744 312744 312744
       526 312747 312747 312747 312747
       527 312753 312753 312753 312753
       528 312757 312757 312757 312757
       529 312763 312763 312763 312763
       530 312769 312769 312769 312769
       531 312770 312770 312770 312770
       532 312774 312774 312774 312774
       533 312779 312779 312779 312779
       534 312786 312786 312786 312786
       535 312790 312790 312790 312790
       536 312796 312796 312796 312796
       537 312802 312802 312802 312802
       538 312803 312803 312803 312803
       539 312807 312807 312807 312807
       540 312812 312812 312812 312812
       541 312814 312814 312814 312814
       542 312820 312820 312820 312820
       543 312824 312824 312824 312824
       544 312830 312830 312830 312830
       545 312836 312836 312836 312836
       546 312837 312837 312837 312837
       547 312841 312841 312841 312841
       548 312846 312846 312846 312846
       549 312853 312853 312853 312853
       550 312854 312854 312854 312854
       551 312857 312857 312857 312857
       552 312863 312863 312863 312863
       553 312869 312869 312869 312869
       554 312870 312870 312870 312870
       555 312879 312879 312879 312879
       556 312886 312886 312886 312886
       557 312889 312889 312889 312889
       558 312895 312895 312895 312895
       559 312901 312901 312901 312901
       560 312902 312902 312902 312902
       561 312911 312911 312911 312911
       562 312913 312913 312913 312913
       563 312918 312918 312918 312918
       564 312919 312919 312919 312919
       565 312922 312922 312922 312922
       566 312929 312929 312929 312929
       567 312934 312934 312934 312934
       568 312935 312935 312935 312935
       569 312944 312944 312944 312944
       570 312950 312950 312950 312950
       571 312952 312952 312952 312952
       572 312955 312955 312955 312955
       573 312960 312960 312960 312960
       574 312967 312967 312967 312967
       575 312968 312968 312968 312968
       576 312977 312977 312977 312977
       577 312983 312983 312983 312983
       578 312984 312984 312984 312984
       579 312986 312986 312986 312986
       580 312993 312993 312993 312993
       581 312998 312998 312998 312998
       582 312999 312999 312999 312999
       583 313008 313008 313008 313008
       584 313011 313011 313011 313011
       585 313014 313014 313014 313014
       586 313015 313015 313015 313015
       587 313016 313016 313016 313016
       588 313017 313017 313017 313017
       589 313020 313020 313020 313020
       590 313025 313025 313025 313025
       591 313032 313032 313032 313032
       592 313033 313033 313033 313033
       593 313042 313042 313042 313042
       594 313047 313047 313047 313047
       595 313049 313049 313049 313049
       596 313050 313050 313050 313050
       597 313052 313052 313052 313052
       598 313054 313054 313054 313054
       599 313060 313060 313060 313060
       600 313066 313066 313066 313066
       601 313067 313067 313067 313067
       602 313076 313076 313076 313076
       603 313080 313080 313080 313080
       604 313081 313081 313081 313081
       605 313083 313083 313083 313083
       606 313085 313085 313085 313085
       607 313097 313097 313097 313097
       608 313098 313098 313098 313098
       609 313107 313107 313107 313107
       610 313112 313112 313112 313112
       611 313114 313114 313114 313114
       612 313116 313116 313116 313116
       613 313117 313117 313117 313117
       614 313120 313120 313120 313120
       615 313132 313132 313132 313132
       616 313133 313133 313133 313133
       617 313142 313142 313142 313142
       618 313147 313147 313147 313147
       619 313148 313148 313148 313148
       620 313149 313149 313149 313149
       621 313150 313150 313150 313150
       622 313152 313152 313152 313152
       623 313163 313163 313163 313163
       624 313164 313164 313164 313164
       625 313173 313173 313173 313173
       626 313179 313179 313179 313179
       627 313180 313180 313180 313180
       628 313181 313181 313181 313181
       629 313182 313182 313182 313182
       630 313184 313184 313184 313184
       631 313192 313192 313192 313192
       632 313196 313196 313196 313196
       633 313197 313197 313197 313197
       634 313206 313206 313206 313206
       635 313213 313213 313213 313213
       636 313214 313214 313214 313214
       637 313215 313215 313215 313215
       638 313216 313216 313216 313216
       639 313219 313219 313219 313219
       640 313227 313227 313227 313227
       641 313231 313231 313231 313231
       642 313232 313232 313232 313232
       643 313241 313241 313241 313241
       644 313248 313248 313248 313248
       645 313249 313249 313249 313249
       646 313250 313250 313250 313250
       647 313251 313251 313251 313251
       648 313254 313254 313254 313254
       649 313262 313262 313262 313262
       650 313266 313266 313266 313266
       651 313267 313267 313267 313267
       652 313276 313276 313276 313276
       653 313282 313282 313282 313282
       654 313283 313283 313283 313283
       655 313284 313284 313284 313284
       656 313285 313285 313285 313285
       657 313288 313288 313288 313288
       658 313296 313296 313296 313296
       659 313300 313300 313300 313300
       660 313301 313301 313301 313301
       661 313303 313303 313303 313303
       662 313310 313310 313310 313310
       663 313315 313315 313315 313315
       664 313316 313316 313316 313316
       665 313317 313317 313317 313317
       666 313318 313318 313318 313318
       667 313321 313321 313321 313321
       668 313329 313329 313329 313329
       669 313333 313333 313333 313333
       670 313334 313334 313334 313334
       671 313336 313336 313336 313336
       672 313343 313343 313343 313343
       673 313345 313345 313345 313345
       674 313350 313350 313350 313350
       675 313351 313351 313351 313351
       676 313352 313352 313352 313352
       677 313353 313353 313353 313353
       678 313356 313356 313356 313356
       679 313364 313364 313364 313364
       680 313368 313368 313368 313368
       681 313369 313369 313369 313369
       682 313371 313371 313371 313371
       683 313378 313378 313378 313378
       684 313384 313384 313384 313384
       685 313385 313385 313385 313385
       686 313386 313386 313386 313386
       687 313387 313387 313387 313387
       688 313390 313390 313390 313390
       689 313398 313398 313398 313398
       690 313402 313402 313402 313402
       691 313403 313403 313403 313403
       692 313405 313405 313405 313405
       693 313412 313412 313412 313412
       694 313416 313416 313416 313416
       695 313422 313422 313422 313422
       696 313423 313423 313423 313423
       697 313424 313424 313424 313424
       698 313425 313425 313425 313425
       699 313428 313428 313428 313428
       700 313436 313436 313436 313436
       701 313440 313440 313440 313440
       702 313441 313441 313441 313441
       703 313443 313443 313443 313443
       704 313450 313450 313450 313450
       705 313457 313457 313457 313457
       706 313458 313458 313458 313458
       707 313459 313459 313459 313459
       708 313460 313460 313460 313460
       709 313463 313463 313463 313463
       710 313471 313471 313471 313471
       711 313475 313475 313475 313475
       712 313476 313476 313476 313476
       713 313478 313478 313478 313478
       714 313485 313485 313485 313485
       715 313493 313493 313493 313493
       716 313494 313494 313494 313494
       717 313495 313495 313495 313495
       718 313496 313496 313496 313496
       719 313499 313499 313499 313499
       720 313507 313507 313507 313507
       721 313511 313511 313511 313511
       722 313512 313512 313512 313512
       723 313514 313514 313514 313514
       724 313521 313521 313521 313521
       725 313523 313523 313523 313523
       726 313527 313527 313527 313527
       727 313528 313528 313528 313528
       728 313529 313529 313529 313529
       729 313530 313530 313530 313530
       730 313531 313531 313531 313531
       731 313534 313534 313534 313534
       732 313542 313542 313542 313542
       733 313546 313546 313546 313546
       734 313548 313548 313548 313548
       735 313555 313555 313555 313555
       736 313561 313561 313561 313561
       737 313562 313562 313562 313562
       738 313563 313563 313563 313563
       739 313564 313564 313564 313564
       740 313567 313567 313567 313567
       741 313574 313574 313574 313574
       742 313575 313575 313575 313575
       743 313579 313579 313579 313579
       744 313582 313582 313582 313582
       745 313589 313589 313589 313589
       746 313596 313596 313596 313596
       747 313597 313597 313597 313597
       748 313598 313598 313598 313598
       749 313601 313601 313601 313601
       750 313608 313608 313608 313608
       751 313609 313609 313609 313609
       752 313613 313613 313613 313613
       753 313616 313616 313616 313616
       754 313623 313623 313623 313623
       755 313626 313626 313626 313626
       756 313632 313632 313632 313632
       757 313633 313633 313633 313633
       758 313634 313634 313634 313634
       759 313635 313635 313635 313635
       760 313638 313638 313638 313638
       761 313645 313645 313645 313645
       762 313646 313646 313646 313646
       763 313650 313650 313650 313650
       764 313653 313653 313653 313653
       765 313660 313660 313660 313660
       766 313667 313667 313667 313667
       767 313668 313668 313668 313668
       768 313669 313669 313669 313669
       769 313670 313670 313670 313670
       770 313673 313673 313673 313673
       771 313680 313680 313680 313680
       772 313681 313681 313681 313681
       773 313684 313684 313684 313684
       774 313687 313687 313687 313687
       775 313694 313694 313694 313694
       776 313699 313699 313699 313699
       777 313700 313700 313700 313700
       778 313701 313701 313701 313701
       779 313702 313702 313702 313702
       780 313704 313704 313704 313704
       781 313711 313711 313711 313711
       782 313712 313712 313712 313712
       783 313713 313713 313713 313713
       784 313716 313716 313716 313716
       785 313719 313719 313719 313719
       786 313725 313725 313725 313725
       787 313731 313731 313731 313731
       788 313732 313732 313732 313732
       789 313733 313733 313733 313733
       790 313734 313734 313734 313734
       791 313737 313737 313737 313737
       792 313744 313744 313744 313744
       793 313745 313745 313745 313745
       794 313746 313746 313746 313746
       795 313749 313749 313749 313749
       796 313752 313752 313752 313752
       797 313753 313753 313753 313753
       798 313759 313759 313759 313759
       799 313762 313762 313762 313762
       800 313763 313763 313763 313763
       801 313767 313767 313767 313767
       802 313768 313768 313768 313768
       803 313769 313769 313769 313769
       804 313770 313770 313770 313770
       805 313773 313773 313773 313773
       806 313780 313780 313780 313780
       807 313781 313781 313781 313781
       808 313784 313784 313784 313784
       809 313787 313787 313787 313787
       810 313788 313788 313788 313788
       811 313794 313794 313794 313794
       812 313801 313801 313801 313801
       813 313802 313802 313802 313802
       814 313803 313803 313803 313803
       815 313804 313804 313804 313804
       816 313807 313807 313807 313807
       817 313813 313813 313813 313813
       818 313814 313814 313814 313814
       819 313815 313815 313815 313815
       820 313818 313818 313818 313818
       821 313821 313821 313821 313821
       822 313822 313822 313822 313822
       823 313828 313828 313828 313828
       824 313836 313836 313836 313836
       825 313837 313837 313837 313837
       826 313838 313838 313838 313838
       827 313839 313839 313839 313839
       828 313842 313842 313842 313842
       829 313849 313849 313849 313849
       830 313850 313850 313850 313850
       831 313851 313851 313851 313851
       832 313854 313854 313854 313854
       833 313857 313857 313857 313857
       834 313858 313858 313858 313858
       835 313864 313864 313864 313864
       836 313870 313870 313870 313870
       837 313871 313871 313871 313871
       838 313872 313872 313872 313872
       839 313873 313873 313873 313873
       840 313877 313877 313877 313877
       841 313883 313883 313883 313883
       842 313884 313884 313884 313884
       843 313885 313885 313885 313885
       844 313888 313888 313888 313888
       845 313891 313891 313891 313891
       846 313892 313892 313892 313892
       847 313893 313893 313893 313893
       848 313897 313897 313897 313897
       849 313904 313904 313904 313904
       850 313905 313905 313905 313905
       851 313906 313906 313906 313906
       852 313907 313907 313907 313907
       853 313916 313916 313916 313916
       854 313917 313917 313917 313917
       855 313918 313918 313918 313918
       856 313921 313921 313921 313921
       857 313924 313924 313924 313924
       858 313925 313925 313925 313925
       859 313926 313926 313926 313926
       860 313931 313931 313931 313931
       861 313936 313936 313936 313936
       862 313937 313937 313937 313937
       863 313938 313938 313938 313938
       864 313939 313939 313939 313939
       865 313949 313949 313949 313949
       866 313950 313950 313950 313950
       867 313951 313951 313951 313951
       868 313954 313954 313954 313954
       869 313957 313957 313957 313957
       870 313958 313958 313958 313958
       871 313959 313959 313959 313959
       872 313964 313964 313964 313964
       873 313970 313970 313970 313970
       874 313971 313971 313971 313971
       875 313972 313972 313972 313972
       876 313973 313973 313973 313973
       877 313983 313983 313983 313983
       878 313984 313984 313984 313984
       879 313985 313985 313985 313985
       880 313988 313988 313988 313988
       881 313991 313991 313991 313991
       882 313992 313992 313992 313992
       883 313993 313993 313993 313993
       884 313998 313998 313998 313998
       885 314004 314004 314004 314004
       886 314005 314005 314005 314005
       887 314006 314006 314006 314006
       888 314007 314007 314007 314007
       889 314018 314018 314018 314018
       890 314019 314019 314019 314019
       891 314022 314022 314022 314022
       892 314025 314025 314025 314025
       893 314026 314026 314026 314026
       894 314027 314027 314027 314027
       895 314032 314032 314032 314032
       896 314038 314038 314038 314038
       897 314039 314039 314039 314039
       898 314040 314040 314040 314040
       899 314041 314041 314041 314041
       900 314052 314052 314052 314052
       901 314053 314053 314053 314053
       902 314056 314056 314056 314056
       903 314059 314059 314059 314059
       904 314060 314060 314060 314060
       905 314061 314061 314061 314061
       906 314066 314066 314066 314066
       907 314073 314073 314073 314073
       908 314074 314074 314074 314074
       909 314075 314075 314075 314075
       910 314076 314076 314076 314076
       911 314087 314087 314087 314087
       912 314088 314088 314088 314088
       913 314091 314091 314091 314091
       914 314094 314094 314094 314094
       915 314095 314095 314095 314095
       916 314096 314096 314096 314096
       917 314101 314101 314101 314101
       918 314107 314107 314107 314107
       919 314108 314108 314108 314108
       920 314109 314109 314109 314109
       921 314110 314110 314110 314110
       922 314120 314120 314120 314120
       923 314121 314121 314121 314121
       924 314124 314124 314124 314124
       925 314127 314127 314127 314127
       926 314128 314128 314128 314128
       927 314129 314129 314129 314129
       928 314134 314134 314134 314134
       929 314139 314139 314139 314139
       930 314140 314140 314140 314140
       931 314141 314141 314141 314141
       932 314142 314142 314142 314142
       933 314150 314150 314150 314150
       934 314153 314153 314153 314153
       935 314154 314154 314154 314154
       936 314157 314157 314157 314157
       937 314158 314158 314158 314158
       938 314160 314160 314160 314160
       939 314161 314161 314161 314161
       940 314162 314162 314162 314162
       941 314167 314167 314167 314167
       942 314172 314172 314172 314172
       943 314173 314173 314173 314173
       944 314174 314174 314174 314174
       945 314175 314175 314175 314175
       946 314183 314183 314183 314183
       947 314186 314186 314186 314186
       948 314187 314187 314187 314187
       949 314189 314189 314189 314189
       950 314190 314190 314190 314190
       951 314192 314192 314192 314192
       952 314193 314193 314193 314193
       953 314194 314194 314194 314194
       954 314199 314199 314199 314199
       955 314201 314201 314201 314201
       956 314205 314205 314205 314205
       957 314206 314206 314206 314206
       958 314207 314207 314207 314207
       959 314215 314215 314215 314215
       960 314218 314218 314218 314218
       961 314219 314219 314219 314219
       962 314222 314222 314222 314222
       963 314223 314223 314223 314223
       964 314225 314225 314225 314225
       965 314226 314226 314226 314226
       966 314227 314227 314227 314227
       967 314232 314232 314232 314232
       968 314238 314238 314238 314238
       969 314239 314239 314239 314239
       970 314241 314241 314241 314241
       971 314249 314249 314249 314249
       972 314251 314251 314251 314251
       973 314252 314252 314252 314252
       974 314255 314255 314255 314255
       975 314256 314256 314256 314256
       976 314258 314258 314258 314258
       977 314259 314259 314259 314259
       978 314260 314260 314260 314260
       979 314265 314265 314265 314265
       980 314267 314267 314267 314267
       981 314271 314271 314271 314271
       982 314273 314273 314273 314273
       983 314274 314274 314274 314274
       984 314282 314282 314282 314282
       985 314285 314285 314285 314285
       986 314286 314286 314286 314286
       987 314289 314289 314289 314289
       988 314290 314290 314290 314290
       989 314292 314292 314292 314292
       990 314293 314293 314293 314293
       991 314294 314294 314294 314294
       992 314299 314299 314299 314299
       993 314304 314304 314304 314304
       994 314306 314306 314306 314306
       995 314307 314307 314307 314307
       996 314314 314314 314314 314314
       997 314317 314317 314317 314317
       998 314318 314318 314318 314318
       999 314321 314321 314321 314321
       1000 314322 314322 314322 314322
       1001 314324 314324 314324 314324
       1002 314325 314325 314325 314325
       1003 314326 314326 314326 314326
       1004 314331 314331 314331 314331
       1005 314338 314338 314338 314338
       1006 314339 314339 314339 314339
       1007 314343 314343 314343 314343
       1008 314349 314349 314349 314349
       1009 314352 314352 314352 314352
       1010 314353 314353 314353 314353
       1011 314356 314356 314356 314356
       1012 314357 314357 314357 314357
       1013 314359 314359 314359 314359
       1014 314360 314360 314360 314360
       1015 314361 314361 314361 314361
       1016 314366 314366 314366 314366
       1017 314371 314371 314371 314371
       1018 314372 314372 314372 314372
       1019 314375 314375 314375 314375
       1020 314382 314382 314382 314382
       1021 314385 314385 314385 314385
       1022 314386 314386 314386 314386
       1023 314389 314389 314389 314389
       1024 314390 314390 314390 314390
       1025 314392 314392 314392 314392
       1026 314393 314393 314393 314393
       1027 314394 314394 314394 314394
       1028 314399 314399 314399 314399
       1029 314405 314405 314405 314405
       1030 314406 314406 314406 314406
       1031 314409 314409 314409 314409
       1032 314415 314415 314415 314415
       1033 314418 314418 314418 314418
       1034 314419 314419 314419 314419
       1035 314422 314422 314422 314422
       1036 314423 314423 314423 314423
       1037 314425 314425 314425 314425
       1038 314426 314426 314426 314426
       1039 314427 314427 314427 314427
       1040 314432 314432 314432 314432
       1041 314437 314437 314437 314437
       1042 314438 314438 314438 314438
       1043 314440 314440 314440 314440
       1044 314443 314443 314443 314443
       1045 314448 314448 314448 314448
       1046 314451 314451 314451 314451
       1047 314452 314452 314452 314452
       1048 314455 314455 314455 314455
       1049 314456 314456 314456 314456
       1050 314458 314458 314458 314458
       1051 314459 314459 314459 314459
       1052 314460 314460 314460 314460
       1053 314464 314464 314464 314464
       1054 314467 314467 314467 314467
       1055 314471 314471 314471 314471
       1056 314472 314472 314472 314472
       1057 314474 314474 314474 314474
       1058 314477 314477 314477 314477
       1059 314482 314482 314482 314482
       1060 314484 314484 314484 314484
       1061 314485 314485 314485 314485
       1062 314488 314488 314488 314488
       1063 314489 314489 314489 314489
       1064 314491 314491 314491 314491
       1065 314492 314492 314492 314492
       1066 314493 314493 314493 314493
       1067 314498 314498 314498 314498
       1068 314503 314503 314503 314503
       1069 314504 314504 314504 314504
       1070 314506 314506 314506 314506
       1071 314507 314507 314507 314507
       1072 314513 314513 314513 314513
       1073 314515 314515 314515 314515
       1074 314516 314516 314516 314516
       1075 314517 314517 314517 314517
       1076 314520 314520 314520 314520
       1077 314521 314521 314521 314521
       1078 314523 314523 314523 314523
       1079 314524 314524 314524 314524
       1080 314525 314525 314525 314525
       1081 314530 314530 314530 314530
       1082 314535 314535 314535 314535
       1083 314536 314536 314536 314536
       1084 314538 314538 314538 314538
       1085 314541 314541 314541 314541
       1086 314546 314546 314546 314546
       1087 314548 314548 314548 314548
       1088 314549 314549 314549 314549
       1089 314550 314550 314550 314550
       1090 314553 314553 314553 314553
       1091 314554 314554 314554 314554
       1092 314556 314556 314556 314556
       1093 314557 314557 314557 314557
       1094 314558 314558 314558 314558
       1095 314563 314563 314563 314563
       1096 314568 314568 314568 314568
       1097 314569 314569 314569 314569
       1098 314571 314571 314571 314571
       1099 314574 314574 314574 314574
       1100 314579 314579 314579 314579
       1101 314581 314581 314581 314581
       1102 314582 314582 314582 314582
       1103 314583 314583 314583 314583
       1104 314586 314586 314586 314586
       1105 314587 314587 314587 314587
       1106 314589 314589 314589 314589
       1107 314590 314590 314590 314590
       1108 314591 314591 314591 314591
       1109 314596 314596 314596 314596
       1110 314601 314601 314601 314601
       1111 314602 314602 314602 314602
       1112 314604 314604 314604 314604
       1113 314609 314609 314609 314609
       1114 314612 314612 314612 314612
       1115 314614 314614 314614 314614
       1116 314615 314615 314615 314615
       1117 314616 314616 314616 314616
       1118 314619 314619 314619 314619
       1119 314620 314620 314620 314620
       1120 314622 314622 314622 314622
       1121 314623 314623 314623 314623
       1122 314624 314624 314624 314624
       1123 314629 314629 314629 314629
       1124 314635 314635 314635 314635
       1125 314636 314636 314636 314636
       1126 314638 314638 314638 314638
       1127 314641 314641 314641 314641
       1128 314646 314646 314646 314646
       1129 314648 314648 314648 314648
       1130 314649 314649 314649 314649
       1131 314650 314650 314650 314650
       1132 314653 314653 314653 314653
       1133 314654 314654 314654 314654
       1134 314656 314656 314656 314656
       1135 314657 314657 314657 314657
       1136 314658 314658 314658 314658
       1137 314663 314663 314663 314663
       1138 314668 314668 314668 314668
       1139 314669 314669 314669 314669
       1140 314671 314671 314671 314671
       1141 314674 314674 314674 314674
       1142 314679 314679 314679 314679
       1143 314681 314681 314681 314681
       1144 314682 314682 314682 314682
       1145 314683 314683 314683 314683
       1146 314685 314685 314685 314685
       1147 314686 314686 314686 314686
       1148 314688 314688 314688 314688
       1149 314689 314689 314689 314689
       1150 314690 314690 314690 314690
       1151 314695 314695 314695 314695
       1152 314697 314697 314697 314697
       1153 314698 314698 314698 314698
       1154 314703 314703 314703 314703
       1155 314706 314706 314706 314706
       1156 314711 314711 314711 314711
       1157 314713 314713 314713 314713
       1158 314714 314714 314714 314714
       1159 314717 314717 314717 314717
       1160 314718 314718 314718 314718
       1161 314720 314720 314720 314720
       1162 314721 314721 314721 314721
       1163 314722 314722 314722 314722
       1164 314727 314727 314727 314727
       1165 314737 314737 314737 314737
       1166 314740 314740 314740 314740
       1167 314745 314745 314745 314745
       1168 314747 314747 314747 314747
       1169 314748 314748 314748 314748
       1170 314749 314749 314749 314749
       1171 314752 314752 314752 314752
       1172 314753 314753 314753 314753
       1173 314755 314755 314755 314755
       1174 314756 314756 314756 314756
       1175 314757 314757 314757 314757
       1176 314762 314762 314762 314762
       1177 314764 314764 314764 314764
       1178 314765 314765 314765 314765
       1179 314772 314772 314772 314772
       1180 314775 314775 314775 314775
       1181 314780 314780 314780 314780
       1182 314782 314782 314782 314782
       1183 314783 314783 314783 314783
       1184 314784 314784 314784 314784
       1185 314787 314787 314787 314787
       1186 314788 314788 314788 314788
       1187 314790 314790 314790 314790
       1188 314791 314791 314791 314791
       1189 314792 314792 314792 314792
       1190 314797 314797 314797 314797
       1191 314807 314807 314807 314807
       1192 314810 314810 314810 314810
       1193 314815 314815 314815 314815
       1194 314817 314817 314817 314817
       1195 314818 314818 314818 314818
       1196 314819 314819 314819 314819
       1197 314822 314822 314822 314822
       1198 314823 314823 314823 314823
       1199 314825 314825 314825 314825
       1200 314826 314826 314826 314826
       1201 314827 314827 314827 314827
       1202 314832 314832 314832 314832
       1203 314843 314843 314843 314843
       1204 314846 314846 314846 314846
       1205 314851 314851 314851 314851
       1206 314853 314853 314853 314853
       1207 314854 314854 314854 314854
       1208 314855 314855 314855 314855
       1209 314858 314858 314858 314858
       1210 314859 314859 314859 314859
       1211 314861 314861 314861 314861
       1212 314862 314862 314862 314862
       1213 314863 314863 314863 314863
       1214 314868 314868 314868 314868
       1215 314870 314870 314870 314870
       1216 314871 314871 314871 314871
       1217 314878 314878 314878 314878
       1218 314881 314881 314881 314881
       1219 314886 314886 314886 314886
       1220 314888 314888 314888 314888
       1221 314889 314889 314889 314889
       1222 314890 314890 314890 314890
       1223 314893 314893 314893 314893
       1224 314894 314894 314894 314894
       1225 314896 314896 314896 314896
       1226 314897 314897 314897 314897
       1227 314898 314898 314898 314898
       1228 314903 314903 314903 314903
       1229 314916 314916 314916 314916
       1230 314921 314921 314921 314921
       1231 314923 314923 314923 314923
       1232 314924 314924 314924 314924
       1233 314925 314925 314925 314925
       1234 314928 314928 314928 314928
       1235 314929 314929 314929 314929
       1236 314931 314931 314931 314931
       1237 314932 314932 314932 314932
       1238 314933 314933 314933 314933
       1239 314938 314938 314938 314938
       1240 314952 314952 314952 314952
       1241 314957 314957 314957 314957
       1242 314959 314959 314959 314959
       1243 314960 314960 314960 314960
       1244 314963 314963 314963 314963
       1245 314964 314964 314964 314964
       1246 314966 314966 314966 314966
       1247 314967 314967 314967 314967
       1248 314968 314968 314968 314968
       1249 314973 314973 314973 314973
       1250 314986 314986 314986 314986
       1251 314991 314991 314991 314991
       1252 314994 314994 314994 314994
       1253 314995 314995 314995 314995
       1254 314998 314998 314998 314998
       1255 314999 314999 314999 314999
       1256 315001 315001 315001 315001
       1257 315002 315002 315002 315002
       1258 315003 315003 315003 315003
       1259 315008 315008 315008 315008
       1260 315020 315020 315020 315020
       1261 315025 315025 315025 315025
       1262 315028 315028 315028 315028
       1263 315029 315029 315029 315029
       1264 315032 315032 315032 315032
       1265 315033 315033 315033 315033
       1266 315035 315035 315035 315035
       1267 315036 315036 315036 315036
       1268 315037 315037 315037 315037
       1269 315042 315042 315042 315042
       1270 315055 315055 315055 315055
       1271 315060 315060 315060 315060
       1272 315063 315063 315063 315063
       1273 315064 315064 315064 315064
       1274 315067 315067 315067 315067
       1275 315068 315068 315068 315068
       1276 315070 315070 315070 315070
       1277 315071 315071 315071 315071
       1278 315072 315072 315072 315072
       1279 315077 315077 315077 315077
       1280 315079 315079 315079 315079
       1281 315080 315080 315080 315080
       1282 315091 315091 315091 315091
       1283 315096 315096 315096 315096
       1284 315099 315099 315099 315099
       1285 315100 315100 315100 315100
       1286 315103 315103 315103 315103
       1287 315104 315104 315104 315104
       1288 315106 315106 315106 315106
       1289 315107 315107 315107 315107
       1290 315108 315108 315108 315108
       1291 315113 315113 315113 315113
       1292 315125 315125 315125 315125
       1293 315129 315129 315129 315129
       1294 315132 315132 315132 315132
       1295 315133 315133 315133 315133
       1296 315136 315136 315136 315136
       1297 315137 315137 315137 315137
       1298 315139 315139 315139 315139
       1299 315140 315140 315140 315140
       1300 315141 315141 315141 315141
       1301 315146 315146 315146 315146
       1302 315148 315148 315148 315148
       1303 315151 315151 315151 315151
       1304 315162 315162 315162 315162
       1305 315167 315167 315167 315167
       1306 315170 315170 315170 315170
       1307 315171 315171 315171 315171
       1308 315174 315174 315174 315174
       1309 315175 315175 315175 315175
       1310 315177 315177 315177 315177
       1311 315178 315178 315178 315178
       1312 315179 315179 315179 315179
       1313 315184 315184 315184 315184
       1314 315200 315200 315200 315200
       1315 315204 315204 315204 315204
       1316 315206 315206 315206 315206
       1317 315207 315207 315207 315207
       1318 315210 315210 315210 315210
       1319 315212 315212 315212 315212
       1320 315213 315213 315213 315213
       1321 315214 315214 315214 315214
       1322 315219 315219 315219 315219
       1323 315222 315222 315222 315222
       1324 315233 315233 315233 315233
       1325 315236 315236 315236 315236
       1326 315239 315239 315239 315239
       1327 315240 315240 315240 315240
       1328 315244 315244 315244 315244
       1329 315246 315246 315246 315246
       1330 315247 315247 315247 315247
       1331 315248 315248 315248 315248
       1332 315253 315253 315253 315253
       1333 315271 315271 315271 315271
       1334 315276 315276 315276 315276
       1335 315279 315279 315279 315279
       1336 315280 315280 315280 315280
       1337 315284 315284 315284 315284
       1338 315286 315286 315286 315286
       1339 315287 315287 315287 315287
       1340 315288 315288 315288 315288
       1341 315293 315293 315293 315293
       1342 315295 315295 315295 315295
       1343 315296 315296 315296 315296
       1344 315308 315308 315308 315308
       1345 315313 315313 315313 315313
       1346 315316 315316 315316 315316
       1347 315317 315317 315317 315317
       1348 315321 315321 315321 315321
       1349 315323 315323 315323 315323
       1350 315324 315324 315324 315324
       1351 315325 315325 315325 315325
       1352 315330 315330 315330 315330
       1353 315333 315333 315333 315333
       1354 315344 315344 315344 315344
       1355 315349 315349 315349 315349
       1356 315352 315352 315352 315352
       1357 315353 315353 315353 315353
       1358 315357 315357 315357 315357
       1359 315359 315359 315359 315359
       1360 315360 315360 315360 315360
       1361 315361 315361 315361 315361
       1362 315366 315366 315366 315366
       1363 315370 315370 315370 315370
       1364 315372 315372 315372 315372
       1365 315381 315381 315381 315381
       1366 315386 315386 315386 315386
       1367 315389 315389 315389 315389
       1368 315390 315390 315390 315390
       1369 315394 315394 315394 315394
       1370 315396 315396 315396 315396
       1371 315397 315397 315397 315397
       1372 315402 315402 315402 315402
       1373 315405 315405 315405 315405
       1374 315414 315414 315414 315414
       1375 315419 315419 315419 315419
       1376 315422 315422 315422 315422
       1377 315423 315423 315423 315423
       1378 315424 315424 315424 315424
       1379 315427 315427 315427 315427
       1380 315430 315430 315430 315430
       1381 315431 315431 315431 315431
       1382 315439 315439 315439 315439
       1383 315440 315440 315440 315440
       1384 315449 315449 315449 315449
       1385 315454 315454 315454 315454
       1386 315456 315456 315456 315456
       1387 315457 315457 315457 315457
       1388 315458 315458 315458 315458
       1389 315461 315461 315461 315461
       1390 315464 315464 315464 315464
       1391 315465 315465 315465 315465
       1392 315470 315470 315470 315470
       1393 315473 315473 315473 315473
       1394 315474 315474 315474 315474
       1395 315482 315482 315482 315482
       1396 315487 315487 315487 315487
       1397 315489 315489 315489 315489
       1398 315490 315490 315490 315490
       1399 315491 315491 315491 315491
       1400 315492 315492 315492 315492
       1401 315495 315495 315495 315495
       1402 315498 315498 315498 315498
       1403 315499 315499 315499 315499
       1404 315504 315504 315504 315504
       1405 315509 315509 315509 315509
       1406 315515 315515 315515 315515
       1407 315518 315518 315518 315518
       1408 315523 315523 315523 315523
       1409 315525 315525 315525 315525
       1410 315526 315526 315526 315526
       1411 315527 315527 315527 315527
       1412 315528 315528 315528 315528
       1413 315534 315534 315534 315534
       1414 315535 315535 315535 315535
       1415 315540 315540 315540 315540
       1416 315542 315542 315542 315542
       1417 315543 315543 315543 315543
       1418 315544 315544 315544 315544
       1419 315545 315545 315545 315545
       1420 315550 315550 315550 315550
       1421 315553 315553 315553 315553
       1422 315558 315558 315558 315558
       1423 315560 315560 315560 315560
       1424 315561 315561 315561 315561
       1425 315562 315562 315562 315562
       1426 315563 315563 315563 315563
       1427 315569 315569 315569 315569
       1428 315570 315570 315570 315570
       1429 315574 315574 315574 315574
       1430 315576 315576 315576 315576
       1431 315578 315578 315578 315578
       1432 315580 315580 315580 315580
       1433 315585 315585 315585 315585
       1434 315586 315586 315586 315586
       1435 315589 315589 315589 315589
       1436 315595 315595 315595 315595
       1437 315596 315596 315596 315596
       1438 315597 315597 315597 315597
       1439 315598 315598 315598 315598
       1440 315604 315604 315604 315604
       1441 315605 315605 315605 315605
       1442 315610 315610 315610 315610
       1443 315616 315616 315616 315616
       1444 315619 315619 315619 315619
       1445 315621 315621 315621 315621
       1446 315624 315624 315624 315624
       1447 315629 315629 315629 315629
       1448 315631 315631 315631 315631
       1449 315632 315632 315632 315632
       1450 315633 315633 315633 315633
       1451 315634 315634 315634 315634
       1452 315640 315640 315640 315640
       1453 315641 315641 315641 315641
       1454 315646 315646 315646 315646
       1455 315651 315651 315651 315651
       1456 315655 315655 315655 315655
       1457 315657 315657 315657 315657
       1458 315659 315659 315659 315659
       1459 315664 315664 315664 315664
       1460 315666 315666 315666 315666
       1461 315667 315667 315667 315667
       1462 315668 315668 315668 315668
       1463 315669 315669 315669 315669
       1464 315675 315675 315675 315675
       1465 315676 315676 315676 315676
       1466 315681 315681 315681 315681
       1467 315683 315683 315683 315683
       1468 315684 315684 315684 315684
       1469 315686 315686 315686 315686
       1470 315688 315688 315688 315688
       1471 315693 315693 315693 315693
       1472 315694 315694 315694 315694
       1473 315697 315697 315697 315697
       1474 315702 315702 315702 315702
       1475 315704 315704 315704 315704
       1476 315705 315705 315705 315705
       1477 315706 315706 315706 315706
       1478 315712 315712 315712 315712
       1479 315713 315713 315713 315713
       1480 315718 315718 315718 315718
       1481 315722 315722 315722 315722
       1482 315727 315727 315727 315727
       1483 315728 315728 315728 315728
       1484 315731 315731 315731 315731
       1485 315736 315736 315736 315736
       1486 315738 315738 315738 315738
       1487 315739 315739 315739 315739
       1488 315740 315740 315740 315740
       1489 315741 315741 315741 315741
       1490 315747 315747 315747 315747
       1491 315748 315748 315748 315748
       1492 315753 315753 315753 315753
       1493 315755 315755 315755 315755
       1494 315756 315756 315756 315756
       1495 315757 315757 315757 315757
       1496 315762 315762 315762 315762
       1497 315763 315763 315763 315763
       1498 315770 315770 315770 315770
       1499 315772 315772 315772 315772
       1500 315773 315773 315773 315773
       1501 315774 315774 315774 315774
       1502 315775 315775 315775 315775
       1503 315781 315781 315781 315781
       1504 315782 315782 315782 315782
       1505 315787 315787 315787 315787
       1506 315789 315789 315789 315789
       1507 315794 315794 315794 315794
       1508 315795 315795 315795 315795
       1509 315800 315800 315800 315800
       1510 315801 315801 315801 315801
       1511 315809 315809 315809 315809
       1512 315811 315811 315811 315811
       1513 315812 315812 315812 315812
       1514 315813 315813 315813 315813
       1515 315814 315814 315814 315814
       1516 315820 315820 315820 315820
       1517 315821 315821 315821 315821
       1518 315826 315826 315826 315826
       1519 315829 315829 315829 315829
       1520 315833 315833 315833 315833
       1521 315834 315834 315834 315834
       1522 315842 315842 315842 315842
       1523 315844 315844 315844 315844
       1524 315845 315845 315845 315845
       1525 315846 315846 315846 315846
       1526 315847 315847 315847 315847
       1527 315853 315853 315853 315853
       1528 315854 315854 315854 315854
       1529 315859 315859 315859 315859
       1530 315861 315861 315861 315861
       1531 315862 315862 315862 315862
       1532 315863 315863 315863 315863
       1533 315868 315868 315868 315868
       1534 315869 315869 315869 315869
       1535 315876 315876 315876 315876
       1536 315879 315879 315879 315879
       1537 315880 315880 315880 315880
       1538 315881 315881 315881 315881
       1539 315887 315887 315887 315887
       1540 315888 315888 315888 315888
       1541 315893 315893 315893 315893
       1542 315897 315897 315897 315897
       1543 315902 315902 315902 315902
       1544 315903 315903 315903 315903
       1545 315908 315908 315908 315908
       1546 315911 315911 315911 315911
       1547 315914 315914 315914 315914
       1548 315915 315915 315915 315915
       1549 315916 315916 315916 315916
       1550 315922 315922 315922 315922
       1551 315923 315923 315923 315923
       1552 315928 315928 315928 315928
       1553 315929 315929 315929 315929
       1554 315930 315930 315930 315930
       1555 315933 315933 315933 315933
       1556 315938 315938 315938 315938
       1557 315939 315939 315939 315939
       1558 315944 315944 315944 315944
       1559 315947 315947 315947 315947
       1560 315949 315949 315949 315949
       1561 315950 315950 315950 315950
       1562 315951 315951 315951 315951
       1563 315957 315957 315957 315957
       1564 315958 315958 315958 315958
       1565 315963 315963 315963 315963
       1566 315964 315964 315964 315964
       1567 315965 315965 315965 315965
       1568 315970 315970 315970 315970
       1569 315971 315971 315971 315971
       1570 315974 315974 315974 315974
       1571 315979 315979 315979 315979
       1572 315982 315982 315982 315982
       1573 315983 315983 315983 315983
       1574 315984 315984 315984 315984
       1575 315990 315990 315990 315990
       1576 315991 315991 315991 315991
       1577 315996 315996 315996 315996
       1578 315997 315997 315997 315997
       1579 315998 315998 315998 315998
       1580 316003 316003 316003 316003
       1581 316004 316004 316004 316004
       1582 316009 316009 316009 316009
       1583 316012 316012 316012 316012
       1584 316015 316015 316015 316015
       1585 316016 316016 316016 316016
       1586 316017 316017 316017 316017
       1587 316023 316023 316023 316023
       1588 316024 316024 316024 316024
       1589 316029 316029 316029 316029
       1590 316030 316030 316030 316030
       1591 316035 316035 316035 316035
       1592 316039 316039 316039 316039
       1593 316040 316040 316040 316040
       1594 316045 316045 316045 316045
       1595 316048 316048 316048 316048
       1596 316051 316051 316051 316051
       1597 316052 316052 316052 316052
       1598 316053 316053 316053 316053
       1599 316059 316059 316059 316059
       1600 316060 316060 316060 316060
       1601 316065 316065 316065 316065
       1602 316066 316066 316066 316066
       1603 316067 316067 316067 316067
       1604 316068 316068 316068 316068
       1605 316073 316073 316073 316073
       1606 316074 316074 316074 316074
       1607 316079 316079 316079 316079
       1608 316082 316082 316082 316082
       1609 316085 316085 316085 316085
       1610 316086 316086 316086 316086
       1611 316087 316087 316087 316087
       1612 316093 316093 316093 316093
       1613 316094 316094 316094 316094
       1614 316099 316099 316099 316099
       1615 316100 316100 316100 316100
       1616 316105 316105 316105 316105
       1617 316110 316110 316110 316110
       1618 316111 316111 316111 316111
       1619 316116 316116 316116 316116
       1620 316119 316119 316119 316119
       1621 316122 316122 316122 316122
       1622 316123 316123 316123 316123
       1623 316124 316124 316124 316124
       1624 316130 316130 316130 316130
       1625 316131 316131 316131 316131
       1626 316136 316136 316136 316136
       1627 316137 316137 316137 316137
       1628 316138 316138 316138 316138
       1629 316139 316139 316139 316139
       1630 316140 316140 316140 316140
       1631 316142 316142 316142 316142
       1632 316146 316146 316146 316146
       1633 316147 316147 316147 316147
       1634 316152 316152 316152 316152
       1635 316155 316155 316155 316155
       1636 316158 316158 316158 316158
       1637 316159 316159 316159 316159
       1638 316160 316160 316160 316160
       1639 316166 316166 316166 316166
       1640 316167 316167 316167 316167
       1641 316172 316172 316172 316172
       1642 316173 316173 316173 316173
       1643 316174 316174 316174 316174
       1644 316175 316175 316175 316175
       1645 316177 316177 316177 316177
       1646 316178 316178 316178 316178
       1647 316183 316183 316183 316183
       1648 316184 316184 316184 316184
       1649 316189 316189 316189 316189
       1650 316192 316192 316192 316192
       1651 316194 316194 316194 316194
       1652 316195 316195 316195 316195
       1653 316196 316196 316196 316196
       1654 316202 316202 316202 316202
       1655 316203 316203 316203 316203
       1656 316208 316208 316208 316208
       1657 316209 316209 316209 316209
       1658 316211 316211 316211 316211
       1659 316214 316214 316214 316214
       1660 316218 316218 316218 316218
       1661 316219 316219 316219 316219
       1662 316224 316224 316224 316224
       1663 316227 316227 316227 316227
       1664 316230 316230 316230 316230
       1665 316231 316231 316231 316231
       1666 316232 316232 316232 316232
       1667 316238 316238 316238 316238
       1668 316239 316239 316239 316239
       1669 316244 316244 316244 316244
       1670 316245 316245 316245 316245
       1671 316249 316249 316249 316249
       1672 316250 316250 316250 316250
       1673 316255 316255 316255 316255
       1674 316256 316256 316256 316256
       1675 316261 316261 316261 316261
       1676 316264 316264 316264 316264
       1677 316267 316267 316267 316267
       1678 316268 316268 316268 316268
       1679 316269 316269 316269 316269
       1680 316275 316275 316275 316275
       1681 316276 316276 316276 316276
       1682 316281 316281 316281 316281
       1683 316282 316282 316282 316282
       1684 316284 316284 316284 316284
       1685 316285 316285 316285 316285
       1686 316290 316290 316290 316290
       1687 316295 316295 316295 316295
       1688 316298 316298 316298 316298
       1689 316301 316301 316301 316301
       1690 316302 316302 316302 316302
       1691 316303 316303 316303 316303
       1692 316309 316309 316309 316309
       1693 316310 316310 316310 316310
       1694 316316 316316 316316 316316
       1695 316317 316317 316317 316317
       1696 316318 316318 316318 316318
       1697 316321 316321 316321 316321
       1698 316322 316322 316322 316322
       1699 316327 316327 316327 316327
       1700 316328 316328 316328 316328
       1701 316333 316333 316333 316333
       1702 316336 316336 316336 316336
       1703 316339 316339 316339 316339
       1704 316340 316340 316340 316340
       1705 316341 316341 316341 316341
       1706 316347 316347 316347 316347
       1707 316348 316348 316348 316348
       1708 316354 316354 316354 316354
       1709 316355 316355 316355 316355
       1710 316360 316360 316360 316360
       1711 316361 316361 316361 316361
       1712 316366 316366 316366 316366
       1713 316369 316369 316369 316369
       1714 316372 316372 316372 316372
       1715 316373 316373 316373 316373
       1716 316374 316374 316374 316374
       1717 316380 316380 316380 316380
       1718 316381 316381 316381 316381
       1719 316387 316387 316387 316387
       1720 316388 316388 316388 316388
       1721 316393 316393 316393 316393
       1722 316394 316394 316394 316394
       1723 316398 316398 316398 316398
       1724 316401 316401 316401 316401
       1725 316404 316404 316404 316404
       1726 316405 316405 316405 316405
       1727 316406 316406 316406 316406
       1728 316412 316412 316412 316412
       1729 316413 316413 316413 316413
       1730 316419 316419 316419 316419
       1731 316422 316422 316422 316422
       1732 316424 316424 316424 316424
       1733 316429 316429 316429 316429
       1734 316430 316430 316430 316430
       1735 316435 316435 316435 316435
       1736 316438 316438 316438 316438
       1737 316440 316440 316440 316440
       1738 316441 316441 316441 316441
       1739 316442 316442 316442 316442
       1740 316448 316448 316448 316448
       1741 316449 316449 316449 316449
       1742 316455 316455 316455 316455
       1743 316459 316459 316459 316459
       1744 316464 316464 316464 316464
       1745 316465 316465 316465 316465
       1746 316470 316470 316470 316470
       1747 316473 316473 316473 316473
       1748 316475 316475 316475 316475
       1749 316476 316476 316476 316476
       1750 316477 316477 316477 316477
       1751 316478 316478 316478 316478
       1752 316484 316484 316484 316484
       1753 316485 316485 316485 316485
       1754 316491 316491 316491 316491
       1755 316495 316495 316495 316495
       1756 316498 316498 316498 316498
       1757 316499 316499 316499 316499
       1758 316503 316503 316503 316503
       1759 316506 316506 316506 316506
       1760 316508 316508 316508 316508
       1761 316509 316509 316509 316509
       1762 316510 316510 316510 316510
       1763 316511 316511 316511 316511
       1764 316517 316517 316517 316517
       1765 316518 316518 316518 316518
       1766 316524 316524 316524 316524
       1767 316525 316525 316525 316525
       1768 316528 316528 316528 316528
       1769 316533 316533 316533 316533
       1770 316536 316536 316536 316536
       1771 316538 316538 316538 316538
       1772 316539 316539 316539 316539
       1773 316543 316543 316543 316543
       1774 316544 316544 316544 316544
       1775 316547 316547 316547 316547
       1776 316549 316549 316549 316549
       1777 316550 316550 316550 316550
       1778 316551 316551 316551 316551
       1779 316552 316552 316552 316552
       1780 316558 316558 316558 316558
       1781 316559 316559 316559 316559
       1782 316565 316565 316565 316565
       1783 316566 316566 316566 316566
       1784 316567 316567 316567 316567
       1785 316568 316568 316568 316568
       1786 316570 316570 316570 316570
       1787 316573 316573 316573 316573
       1788 316574 316574 316574 316574
       1789 316578 316578 316578 316578
       1790 316579 316579 316579 316579
       1791 316582 316582 316582 316582
       1792 316584 316584 316584 316584
       1793 316585 316585 316585 316585
       1794 316586 316586 316586 316586
       1795 316587 316587 316587 316587
       1796 316593 316593 316593 316593
       1797 316594 316594 316594 316594
       1798 316600 316600 316600 316600
       1799 316604 316604 316604 316604
       1800 316606 316606 316606 316606
       1801 316609 316609 316609 316609
       1802 316610 316610 316610 316610
       1803 316612 316612 316612 316612
       1804 316615 316615 316615 316615
       1805 316617 316617 316617 316617
       1806 316619 316619 316619 316619
       1807 316620 316620 316620 316620
       1808 316621 316621 316621 316621
       1809 316622 316622 316622 316622
       1810 316628 316628 316628 316628
       1811 316629 316629 316629 316629
       1812 316635 316635 316635 316635
       1813 316640 316640 316640 316640
       1814 316642 316642 316642 316642
       1815 316643 316643 316643 316643
       1816 316647 316647 316647 316647
       1817 316648 316648 316648 316648
       1818 316651 316651 316651 316651
       1819 316653 316653 316653 316653
       1820 316654 316654 316654 316654
       1821 316655 316655 316655 316655
       1822 316656 316656 316656 316656
       1823 316662 316662 316662 316662
       1824 316663 316663 316663 316663
       1825 316669 316669 316669 316669
       1826 316672 316672 316672 316672
       1827 316676 316676 316676 316676
       1828 316680 316680 316680 316680
       1829 316681 316681 316681 316681
       1830 316685 316685 316685 316685
       1831 316686 316686 316686 316686
       1832 316689 316689 316689 316689
       1833 316691 316691 316691 316691
       1834 316692 316692 316692 316692
       1835 316693 316693 316693 316693
       1836 316694 316694 316694 316694
       1837 316700 316700 316700 316700
       1838 316701 316701 316701 316701
       1839 316707 316707 316707 316707
       1840 316711 316711 316711 316711
       1841 316714 316714 316714 316714
       1842 316715 316715 316715 316715
       1843 316719 316719 316719 316719
       1844 316723 316723 316723 316723
       1845 316725 316725 316725 316725
       1846 316726 316726 316726 316726
       1847 316727 316727 316727 316727
       1848 316728 316728 316728 316728
       1849 316734 316734 316734 316734
       1850 316735 316735 316735 316735
       1851 316741 316741 316741 316741
       1852 316744 316744 316744 316744
       1853 316746 316746 316746 316746
       1854 316747 316747 316747 316747
       1855 316751 316751 316751 316751
       1856 316755 316755 316755 316755
       1857 316757 316757 316757 316757
       1858 316758 316758 316758 316758
       1859 316759 316759 316759 316759
       1860 316760 316760 316760 316760
       1861 316766 316766 316766 316766
       1862 316767 316767 316767 316767
       1863 316773 316773 316773 316773
       1864 316779 316779 316779 316779
       1865 316781 316781 316781 316781
       1866 316782 316782 316782 316782
       1867 316786 316786 316786 316786
       1868 316790 316790 316790 316790
       1869 316792 316792 316792 316792
       1870 316793 316793 316793 316793
       1871 316794 316794 316794 316794
       1872 316795 316795 316795 316795
       1873 316801 316801 316801 316801
       1874 316802 316802 316802 316802
       1875 316808 316808 316808 316808
       1876 316815 316815 316815 316815
       1877 316817 316817 316817 316817
[...]
     number of failed solid  elements = 0
     number of failed beam   elements = 0
     number of failed shell  elements = 0
     number of failed tshell elements = 0
 f a i l e d   e l e m e n t   r e p o r t  time=  3.5739E-05
     number of failed solid  elements = 0
     number of failed beam   elements = 0
     number of failed shell  elements = 0
     number of failed tshell elements = 0
 f a i l e d   e l e m e n t   r e p o r t  time=  3.5816E-05
     number of failed solid  elements = 0
     number of failed beam   elements = 0
     number of failed shell  elements = 0
     number of failed tshell elements = 0
 f a i l e d   e l e m e n t   r e p o r t  time=  3.5845E-05
     number of failed solid  elements = 0
     number of failed beam   elements = 0
     number of failed shell  elements = 0
     number of failed tshell elements = 0
 f a i l e d   e l e m e n t   r e p o r t  time=  3.5962E-05
     number of failed solid  elements = 0
     number of failed beam   elements = 0
     number of failed shell  elements = 0
     number of failed tshell elements = 0
 f a i l e d   e l e m e n t   r e p o r t  time=  3.5979E-05
     number of failed solid  elements = 0
     number of failed beam   elements = 0
     number of failed shell  elements = 0
     number of failed tshell elements = 0
 f a i l e d   e l e m e n t   r e p o r t  time=  3.6037E-05
     number of failed solid  elements = 0
     number of failed beam   elements = 0
     number of failed shell  elements = 0
     number of failed tshell elements = 0
 f a i l e d   e l e m e n t   r e p o r t  time=  3.6102E-05
     number of failed solid  elements = 0
     number of failed beam   elements = 0
     number of failed shell  elements = 0
     number of failed tshell elements = 0
 f a i l e d   e l e m e n t   r e p o r t  time=  3.6114E-05
     number of failed solid  elements = 0
     number of failed beam   elements = 0
     number of failed shell  elements = 0
     number of failed tshell elements = 0
 f a i l e d   e l e m e n t   r e p o r t  time=  3.6409E-05
     number of failed solid  elements = 0
     number of failed beam   elements = 0
     number of failed shell  elements = 0
     number of failed tshell elements = 0
 f a i l e d   e l e m e n t   r e p o r t  time=  3.6810E-05
     number of failed solid  elements = 0
     number of failed beam   elements = 0
     number of failed shell  elements = 0
     number of failed tshell elements = 0
 f a i l e d   e l e m e n t   r e p o r t  time=  3.6819E-05
     number of failed solid  elements = 0
     number of failed beam   elements = 0
     number of failed shell  elements = 0
     number of failed tshell elements = 0
 f a i l e d   e l e m e n t   r e p o r t  time=  3.7076E-05
     number of failed solid  elements = 0
     number of failed beam   elements = 0
     number of failed shell  elements = 0
     number of failed tshell elements = 0
 f a i l e d   e l e m e n t   r e p o r t  time=  3.7247E-05
     number of failed solid  elements = 0
     number of failed beam   elements = 0
     number of failed shell  elements = 0
     number of failed tshell elements = 0
 f a i l e d   e l e m e n t   r e p o r t  time=  3.7499E-05
     number of failed solid  elements = 0
     number of failed beam   elements = 0
     number of failed shell  elements = 0
     number of failed tshell elements = 0
 f a i l e d   e l e m e n t   r e p o r t  time=  3.7525E-05
     number of failed solid  elements = 0
     number of failed beam   elements = 0
     number of failed shell  elements = 0
     number of failed tshell elements = 0
 f a i l e d   e l e m e n t   r e p o r t  time=  3.7794E-05
     number of failed solid  elements = 0
     number of failed beam   elements = 0
     number of failed shell  elements = 0
     number of failed tshell elements = 0
 f a i l e d   e l e m e n t   r e p o r t  time=  3.8064E-05
     number of failed solid  elements = 0
     number of failed beam   elements = 0
     number of failed shell  elements = 0
     number of failed tshell elements = 0
 f a i l e d   e l e m e n t   r e p o r t  time=  3.8136E-05
     number of failed solid  elements = 0
     number of failed beam   elements = 0
     number of failed shell  elements = 0
     number of failed tshell elements = 0
 f a i l e d   e l e m e n t   r e p o r t  time=  3.8276E-05
     number of failed solid  elements = 0
     number of failed beam   elements = 0
     number of failed shell  elements = 0
     number of failed tshell elements = 0
 f a i l e d   e l e m e n t   r e p o r t  time=  3.8521E-05
     number of failed solid  elements = 0
     number of failed beam   elements = 0
     number of failed shell  elements = 0
     number of failed tshell elements = 0
 f a i l e d   e l e m e n t   r e p o r t  time=  3.8904E-05
     number of failed solid  elements = 0
     number of failed beam   elements = 0
     number of failed shell  elements = 0
     number of failed tshell elements = 0
 f a i l e d   e l e m e n t   r e p o r t  time=  3.8928E-05
     number of failed solid  elements = 0
     number of failed beam   elements = 0
     number of failed shell  elements = 0
     number of failed tshell elements = 0
 f a i l e d   e l e m e n t   r e p o r t  time=  3.9038E-05
     number of failed solid  elements = 0
     number of failed beam   elements = 0
     number of failed shell  elements = 0
     number of failed tshell elements = 0
 f a i l e d   e l e m e n t   r e p o r t  time=  3.9104E-05
     number of failed solid  elements = 0
     number of failed beam   elements = 0
     number of failed shell  elements = 0
     number of failed tshell elements = 0
 f a i l e d   e l e m e n t   r e p o r t  time=  3.9287E-05
     number of failed solid  elements = 0
     number of failed beam   elements = 0
     number of failed shell  elements = 0
     number of failed tshell elements = 0
 f a i l e d   e l e m e n t   r e p o r t  time=  3.9396E-05
     number of failed solid  elements = 0
     number of failed beam   elements = 0
     number of failed shell  elements = 0
     number of failed tshell elements = 0
 f a i l e d   e l e m e n t   r e p o r t  time=  3.9468E-05
     number of failed solid  elements = 0
     number of failed beam   elements = 0
     number of failed shell  elements = 0
     number of failed tshell elements = 0
 f a i l e d   e l e m e n t   r e p o r t  time=  3.9576E-05
     number of failed solid  elements = 0
     number of failed beam   elements = 0
     number of failed shell  elements = 0
     number of failed tshell elements = 0
 f a i l e d   e l e m e n t   r e p o r t  time=  3.9710E-05
     number of failed solid  elements = 0
     number of failed beam   elements = 0
     number of failed shell  elements = 0
     number of failed tshell elements = 0
 f a i l e d   e l e m e n t   r e p o r t  time=  3.9779E-05
     number of failed solid  elements = 0
     number of failed beam   elements = 0
     number of failed shell  elements = 0
     number of failed tshell elements = 0
 f a i l e d   e l e m e n t   r e p o r t  time=  3.9780E-05
     number of failed solid  elements = 0
     number of failed beam   elements = 0
     number of failed shell  elements = 0
     number of failed tshell elements = 0
 f a i l e d   e l e m e n t   r e p o r t  time=  3.9873E-05
     number of failed solid  elements = 0
     number of failed beam   elements = 0
     number of failed shell  elements = 0
     number of failed tshell elements = 0
 f a i l e d   e l e m e n t   r e p o r t  time=  3.9985E-05
     number of failed solid  elements = 0
     number of failed beam   elements = 0
     number of failed shell  elements = 0
     number of failed tshell elements = 0
 f a i l e d   e l e m e n t   r e p o r t  time=  4.0140E-05
     number of failed solid  elements = 0
     number of failed beam   elements = 0
     number of failed shell  elements = 0
     number of failed tshell elements = 0
 f a i l e d   e l e m e n t   r e p o r t  time=  4.0197E-05
     number of failed solid  elements = 0
     number of failed beam   elements = 0
     number of failed shell  elements = 0
     number of failed tshell elements = 0
 f a i l e d   e l e m e n t   r e p o r t  time=  4.0775E-05
     number of failed solid  elements = 0
     number of failed beam   elements = 0
     number of failed shell  elements = 0
     number of failed tshell elements = 0
 f a i l e d   e l e m e n t   r e p o r t  time=  4.0831E-05
     number of failed solid  elements = 0
     number of failed beam   elements = 0
     number of failed shell  elements = 0
     number of failed tshell elements = 0
 f a i l e d   e l e m e n t   r e p o r t  time=  4.0907E-05
     number of failed solid  elements = 0
     number of failed beam   elements = 0
     number of failed shell  elements = 0
     number of failed tshell elements = 0
 f a i l e d   e l e m e n t   r e p o r t  time=  4.1077E-05
     number of failed solid  elements = 0
     number of failed beam   elements = 0
     number of failed shell  elements = 0
     number of failed tshell elements = 0
 f a i l e d   e l e m e n t   r e p o r t  time=  4.1262E-05
     number of failed solid  elements = 0
     number of failed beam   elements = 0
     number of failed shell  elements = 0
     number of failed tshell elements = 0
 f a i l e d   e l e m e n t   r e p o r t  time=  4.1386E-05
     number of failed solid  elements = 0
     number of failed beam   elements = 0
     number of failed shell  elements = 0
     number of failed tshell elements = 0
 f a i l e d   e l e m e n t   r e p o r t  time=  4.1442E-05
     number of failed solid  elements = 0
     number of failed beam   elements = 0
     number of failed shell  elements = 0
     number of failed tshell elements = 0
 f a i l e d   e l e m e n t   r e p o r t  time=  4.1903E-05
     number of failed solid  elements = 0
     number of failed beam   elements = 0
     number of failed shell  elements = 0
     number of failed tshell elements = 0
 f a i l e d   e l e m e n t   r e p o r t  time=  4.1948E-05
     number of failed solid  elements = 0
     number of failed beam   elements = 0
     number of failed shell  elements = 0
     number of failed tshell elements = 0
 f a i l e d   e l e m e n t   r e p o r t  time=  4.2174E-05
     number of failed solid  elements = 0
     number of failed beam   elements = 0
     number of failed shell  elements = 0
     number of failed tshell elements = 0
 f a i l e d   e l e m e n t   r e p o r t  time=  4.2221E-05
     number of failed solid  elements = 0
     number of failed beam   elements = 0
     number of failed shell  elements = 0
     number of failed tshell elements = 0
 f a i l e d   e l e m e n t   r e p o r t  time=  4.2834E-05
     number of failed solid  elements = 0
     number of failed beam   elements = 0
     number of failed shell  elements = 0
     number of failed tshell elements = 0
 f a i l e d   e l e m e n t   r e p o r t  time=  4.2899E-05
     number of failed solid  elements = 0
     number of failed beam   elements = 0
     number of failed shell  elements = 0
     number of failed tshell elements = 0
 f a i l e d   e l e m e n t   r e p o r t  time=  4.3144E-05
     number of failed solid  elements = 0
     number of failed beam   elements = 0
     number of failed shell  elements = 0
     number of failed tshell elements = 0
 f a i l e d   e l e m e n t   r e p o r t  time=  4.4395E-05
     number of failed solid  elements = 0
     number of failed beam   elements = 0
     number of failed shell  elements = 0
     number of failed tshell elements = 0
 f a i l e d   e l e m e n t   r e p o r t  time=  4.4508E-05
     number of failed solid  elements = 0
     number of failed beam   elements = 0
     number of failed shell  elements = 0
     number of failed tshell elements = 0
 f a i l e d   e l e m e n t   r e p o r t  time=  4.4990E-05
     number of failed solid  elements = 0
     number of failed beam   elements = 0
     number of failed shell  elements = 0
     number of failed tshell elements = 0
 f a i l e d   e l e m e n t   r e p o r t  time=  4.5418E-05
     number of failed solid  elements = 0
     number of failed beam   elements = 0
     number of failed shell  elements = 0
     number of failed tshell elements = 0
 f a i l e d   e l e m e n t   r e p o r t  time=  4.7640E-05
     number of failed solid  elements = 0
     number of failed beam   elements = 0
     number of failed shell  elements = 0
     number of failed tshell elements = 0
 f a i l e d   e l e m e n t   r e p o r t  time=  4.8413E-05
     number of failed solid  elements = 0
     number of failed beam   elements = 0
     number of failed shell  elements = 0
     number of failed tshell elements = 0
 f a i l e d   e l e m e n t   r e p o r t  time=  5.4316E-05
     number of failed solid  elements = 0
     number of failed beam   elements = 0
     number of failed shell  elements = 0
     number of failed tshell elements = 0

 S t o r a g e   a l l o c a t i o n   

 Memory required to complete solution   :     251K
 Additional dynamically allocated memory:      27M
                                   Total:      28M


 P r o c e s s o r   #         3

 T i m i n g   i n f o r m a t i o n
                        CPU(seconds)   %CPU  Clock(seconds) %Clock
  ----------------------------------------------------------------
  Keyword Processing ... 3.7470E-01    0.14     3.7901E-01    0.14
  MPP Decomposition .... 6.2784E-01    0.24     6.9937E-01    0.26
    Init Proc .......... 5.0451E-01    0.19     5.0640E-01    0.19
    Decomposition ...... 3.7934E-02    0.01     4.0747E-02    0.02
    Translation ........ 8.5325E-02    0.03     1.5215E-01    0.06
  Initialization ....... 1.5646E-01    0.06     2.6342E-01    0.10
    Init Proc Phase 1 .. 9.8068E-02    0.04     1.2132E-01    0.05
    Init Proc Phase 2 .. 1.2273E-02    0.00     3.8204E-02    0.01
  Element processing ... 1.0283E+02   38.82     1.0336E+02   38.77
    Solids ............. 9.8495E+01   37.18     9.8986E+01   37.13
    E Other ............ 7.1454E-02    0.03     7.1568E-02    0.03
  Binary databases ..... 4.6737E-01    0.18     4.9035E-01    0.18
  ASCII database ....... 2.1372E+00    0.81     2.1549E+00    0.81
  Contact algorithm .... 5.1577E+01   19.47     5.1842E+01   19.45
    Interf. ID         3 1.3112E+01    4.95     1.3182E+01    4.95
    Interf. ID         2 3.0293E+01   11.43     3.0443E+01   11.42
  Rigid Bodies ......... 2.0431E-01    0.08     2.0786E-01    0.08
  DEM .................. 1.7175E+01    6.48     1.7252E+01    6.47
    DEM self contact ... 1.6681E+01    6.30     1.6758E+01    6.29
  Time step size ....... 5.5182E+01   20.83     5.5413E+01   20.79
  Group force file ..... 4.8202E-02    0.02     6.0351E-02    0.02
  Others ............... 2.8396E+00    1.07     2.9048E+00    1.09
    Force Sharing ...... 2.4690E+00    0.93     2.4793E+00    0.93
  Misc. 1 .............. 1.7948E+01    6.77     1.8050E+01    6.77
    Scale Masses ....... 1.9761E-02    0.01     2.0033E-02    0.01
    Force Constraints .. 2.7319E-02    0.01     2.7444E-02    0.01
    Force to Accel ..... 1.7059E+00    0.64     1.7075E+00    0.64
    Constraint Sharing . 4.0387E-02    0.02     4.0808E-02    0.02
    Update RB nodes .... 3.3510E-02    0.01     3.7087E-02    0.01
  Misc. 2 .............. 4.1153E+00    1.55     4.1309E+00    1.55
  Misc. 3 .............. 8.1259E+00    3.07     8.2275E+00    3.09
  Misc. 4 .............. 1.1157E+00    0.42     1.1324E+00    0.42
    Timestep Init ...... 8.5549E-01    0.32     8.5748E-01    0.32
    Apply Loads ........ 2.0988E-01    0.08     2.1953E-01    0.08
  ----------------------------------------------------------------
  T o t a l s            2.6493E+02  100.00     2.6657E+02  100.00


 A v e r a g e s

 T i m i n g   i n f o r m a t i o n
                        CPU(seconds)   %CPU  Clock(seconds) %Clock
  ----------------------------------------------------------------
  Keyword Processing ... 3.2976E-01    0.13     3.7897E-01    0.14
    KW Reading ......... 1.7418E-02    0.01     2.5754E-02    0.01
    KW Writing ......... 1.0975E-02    0.00     2.3861E-02    0.01
  MPP Decomposition .... 5.6853E-01    0.22     7.0005E-01    0.26
    Init Proc .......... 4.4849E-01    0.17     5.0639E-01    0.19
    Decomposition ...... 3.2406E-02    0.01     4.0831E-02    0.02
    Translation ........ 8.7553E-02    0.03     1.5275E-01    0.06
  Initialization ....... 1.4815E-01    0.06     2.5963E-01    0.10
    Init Proc Phase 1 .. 9.7087E-02    0.04     1.2113E-01    0.05
    Init Proc Phase 2 .. 1.2040E-02    0.00     3.8188E-02    0.01
  Init solver .......... 1.9152E-03    0.00     5.4310E-03    0.00
  Element processing ... 1.0998E+02   41.77     1.1056E+02   41.48
    Solids ............. 1.0570E+02   40.14     1.0623E+02   39.85
    E Other ............ 1.1511E-01    0.04     1.1551E-01    0.04
  Binary databases ..... 4.5580E-01    0.17     4.8110E-01    0.18
  ASCII database ....... 2.4174E+00    0.92     3.8962E+00    1.46
  Contact algorithm .... 5.2359E+01   19.88     5.2632E+01   19.74
    Interf. ID         3 1.3663E+01    5.19     1.3739E+01    5.15
    Interf. ID         2 3.1582E+01   11.99     3.1737E+01   11.91
  Rigid Bodies ......... 1.8923E-01    0.07     1.9276E-01    0.07
  DEM .................. 1.6211E+01    6.16     1.6284E+01    6.11
    DEM self contact ... 1.5740E+01    5.98     1.5813E+01    5.93
  Time step size ....... 4.8129E+01   18.28     4.8337E+01   18.13
  Group force file ..... 4.2575E-02    0.02     5.1534E-02    0.02
  Others ............... 3.0546E+00    1.16     3.1103E+00    1.17
    Force Sharing ...... 2.7044E+00    1.03     2.7148E+00    1.02
  Misc. 1 .............. 1.8001E+01    6.84     1.8112E+01    6.79
    Scale Masses ....... 1.9621E-02    0.01     1.9828E-02    0.01
    Force Constraints .. 2.8844E-02    0.01     2.9054E-02    0.01
    Force to Accel ..... 1.6809E+00    0.64     1.6835E+00    0.63
    Constraint Sharing . 3.1554E-02    0.01     3.1843E-02    0.01
    Update RB nodes .... 3.5595E-02    0.01     3.8375E-02    0.01
  Misc. 2 .............. 3.4083E+00    1.29     3.4240E+00    1.28
  Misc. 3 .............. 7.0440E+00    2.68     7.1464E+00    2.68
  Misc. 4 .............. 9.8101E-01    0.37     9.9729E-01    0.37
    Timestep Init ...... 6.9994E-01    0.27     7.0209E-01    0.26
    Apply Loads ........ 2.2425E-01    0.09     2.3332E-01    0.09
  ----------------------------------------------------------------
  T o t a l s            2.6332E+02  100.00     2.6657E+02  100.00

 Problem time       =    6.0000E-05
 Problem cycle      =     49331
 Total CPU time     =       263 seconds (   0 hours  4 minutes 23 seconds)
 CPU time per zone cycle  =        504.206 nanoseconds
 Clock time per zone cycle=        510.111 nanoseconds

 Parallel execution with      4 MPP proc
 NLQ used/max                64/    64

  C P U   T i m i n g   i n f o r m a t i o n

  Processor   Hostname                              CPU/Avg_CPU  CPU(seconds)
  ---------------------------------------------------------------------------
  #       0   compute-0-0                               0.98205   2.5865E+02
  #       1   compute-0-0                               1.00567   2.6487E+02
  #       2   compute-0-0                               1.00612   2.6499E+02
  #       3   compute-0-0                               1.00616   2.6500E+02
  ---------------------------------------------------------------------------
  T o t a l s                                                     1.0535E+03


 Start time   04/08/2022 11:26:22  
 End time     04/08/2022 11:30:48  
 Elapsed time     266 seconds for   49331 cycles using     4 MPP procs
             (      0 hour   4 minutes 26 seconds)

 N o r m a l    t e r m i n a t i o n                          04/08/22 11:30:48
