      Date: 04/08/2022      Time: 11:26:22  

     ___________________________________________________
     |                                                 |
     |  Livermore Software Technology, LLC             |
     |                                                 |
     |  7374 Las Positas Road                          |
     |  Livermore, CA 94551                            |
     |  Tel: (925) 449-2500  Fax: (925) 449-2507       |
     |  www.lstc.com                                   |
     |_________________________________________________|
     |                                                 |
     |  LS-DYNA, A Program for Nonlinear Dynamic       |
     |  Analysis of Structures in Three Dimensions     |
     |  Version : mpp d R12.0.0   Date: 06/19/2020     |
     |  Revision: 148931          Time: 17:26:40       |
     |                                                 |
     |  Features enabled in this version:              |
     |    Distributed Memory Parallel                  |
     |    CESE CHEMISTRY EM ICFD STOCHASTIC_PARTICLES  |
     |    FFTW (multi-dimensional FFTW Library)        |
     |    ANSYS License (ANSYS202)                     |
     |    BigID  option                                |
     |                                                 |
     |  Licensed to:                                   |
     |  Issued by  : Pascale.SaneGuttin_02092022       |
     |                                                 |
     |  Platform   : Intel-MPI 2018 Xeon64             |
     |  OS Level   : Linux CentOS 6.5 uom              |
     |  Compiler   : Intel Fortran Compiler 16.0 AVX-2 |
     |  Hostname   : compute-0-0                       |
     |  Precision  : Double precision (I8R8)           |
     |  SVN Version: 148978                            |
     |                                                 |
     |  Unauthorized use infringes LST copyrights      |
     |_________________________________________________|


 Input file: DynaOpt.key                                                                     

 The native file format       : 64-bit small endian

 LS-DYNA will perform a structural only analysis 

 allocating  memory to   100000000 d     1985258 hex ownership chunk
 contracting memory to           7 d     1990526 material sort chunk
 expanding   memory to          12 d     2054155 nodal force sharing lists 1
 expanding   memory to          18 d     2039679 mat scratch
 expanding   memory to          19 d     3108558 tied nodes scratch
 expanding   memory to          22 d     3108558 tied node scratch
 contracting memory to          18 d     3108558 nodal rigid body scratch
 expanding   memory to        1298 d     3108558 DES sld2des scratch
 expanding   memory to       17386 d     3108558 DES sld2des scratch
 contracting memory to        2450 d     3108558 DES sld2des scratch
 contracting memory to          18 d     3108558 spring/damper scratch
 contracting memory to           1 d     2099758 Performing Decomposition -- Phase 3
 LS-DYNA keyword deck by LS-PrePost                                      
                         ls-dyna mpp.148931 d           date 06/19/2020
 expanding   memory to        4305 d     2099758 material, node and element data
 expanding   memory to        4399 d     2099777 mat add general damage 0
 expanding   memory to        4459 d     2099777 material added airbag porosity leakage 
 expanding   memory to        4477 d     2099777 material properties
 expanding   memory to        4495 d     2136750 element data for composite material
 expanding   memory to        4510 d     2463335 gradient of damage data
 expanding   memory to       17718 d     2502854 user control for contact interfaces
 contracting memory to       17704 d     2502854 thermal expansion 0
 expanding   memory to       17710 d     2502854 state of charge expansion 0
 expanding   memory to       17712 d     2502854 cross-sectional force definitions 0
 expanding   memory to       27298 d     2502890 temp index array for node sorting
 contracting memory to       17712 d     2502890 just because?
 expanding   memory to       20346 d     2522080 arbitrary element numbering input
 contracting memory to       17732 d    24955746 spc cards
 contracting memory to       17719 d    24955746 d3thdt storage
 expanding   memory to       17720 d    25037108 process element material data
 expanding   memory to       19721 d    25037102 load curve data
 contracting memory to       17727 d    25037102 user_define_loading_set
 expanding   memory to       17927 d    25037102 regularize time history data
 contracting memory to       17731 d    25037102 *DEFINE_ELEMENT_DEATH
 expanding   memory to       17986 d    25017829 contact interfaces
 expanding   memory to       38158 d    25017829 implicit contact 1
 expanding   memory to       59214 d    25017829 implicit contact 2
 contracting memory to       18986 d    25265488 contact segment data 1
 expanding   memory to       68816 d    25508578 contact segment data 3
 expanding   memory to      153136 d    25393434 read contacts, eroding check
 expanding   memory to      234765 d    25393434 eroding neighbors 2
 expanding   memory to      253204 d    25393434 eroding neighbors
 contracting memory to      105694 d    25826543 contact definition
 expanding   memory to      105700 d    25970393 contact history
 expanding   memory to      105754 d    26048757 rigid body
 expanding   memory to      105772 d    26049371 rbe2 scratch
 contracting memory to      105758 d    26107347 contact friction
 expanding   memory to      105848 d    26107353 joints
 expanding   memory to      107908 d    26107353 de sld2des
 expanding   memory to      107948 d    26115255 discrete elements regions
 expanding   memory to      108048 d    26314311 rigid bodies for disp. termination
 
 *** Warning 40859 (SOL+859)
     Cannot find elements of slave segment of interface 2
 deleted segment ID          n1          n2          n3          n4
       1 310640 310640 310640 310640
       2 310641 310641 310641 310641
       3 310644 310644 310644 310644
       4 310645 310645 310645 310645
       5 310646 310646 310646 310646
       6 310650 310650 310650 310650
       7 310654 310654 310654 310654
       8 310655 310655 310655 310655
       9 310656 310656 310656 310656
       10 310657 310657 310657 310657
       11 310658 310658 310658 310658
       12 310660 310660 310660 310660
       13 310661 310661 310661 310661
       14 310663 310663 310663 310663
       15 310671 310671 310671 310671
       16 310672 310672 310672 310672
       17 310675 310675 310675 310675
       18 310676 310676 310676 310676
       19 310677 310677 310677 310677
       20 310681 310681 310681 310681
       21 310685 310685 310685 310685
       22 310686 310686 310686 310686
       23 310687 310687 310687 310687
       24 310688 310688 310688 310688
       25 310689 310689 310689 310689
       26 310690 310690 310690 310690
       27 310692 310692 310692 310692
       28 310693 310693 310693 310693
       29 310695 310695 310695 310695
       30 310704 310704 310704 310704
       31 310706 310706 310706 310706
       32 310709 310709 310709 310709
       33 310710 310710 310710 310710
       34 310711 310711 310711 310711
       35 310714 310714 310714 310714
       36 310719 310719 310719 310719
       37 310720 310720 310720 310720
       38 310721 310721 310721 310721
       39 310722 310722 310722 310722
       40 310723 310723 310723 310723
       41 310724 310724 310724 310724
       42 310726 310726 310726 310726
       43 310727 310727 310727 310727
       44 310729 310729 310729 310729
       45 310739 310739 310739 310739
       46 310742 310742 310742 310742
       47 310743 310743 310743 310743
       48 310744 310744 310744 310744
       49 310747 310747 310747 310747
       50 310749 310749 310749 310749
       51 310752 310752 310752 310752
       52 310753 310753 310753 310753
       53 310754 310754 310754 310754
       54 310755 310755 310755 310755
       55 310756 310756 310756 310756
       56 310757 310757 310757 310757
       57 310759 310759 310759 310759
       58 310760 310760 310760 310760
       59 310762 310762 310762 310762
       60 310769 310769 310769 310769
       61 310771 310771 310771 310771
       62 310774 310774 310774 310774
       63 310775 310775 310775 310775
       64 310776 310776 310776 310776
       65 310779 310779 310779 310779
       66 310781 310781 310781 310781
       67 310784 310784 310784 310784
       68 310785 310785 310785 310785
       69 310786 310786 310786 310786
       70 310787 310787 310787 310787
       71 310788 310788 310788 310788
       72 310789 310789 310789 310789
       73 310791 310791 310791 310791
       74 310792 310792 310792 310792
       75 310794 310794 310794 310794
       76 310802 310802 310802 310802
       77 310805 310805 310805 310805
       78 310806 310806 310806 310806
       79 310809 310809 310809 310809
       80 310810 310810 310810 310810
       81 310811 310811 310811 310811
       82 310814 310814 310814 310814
       83 310816 310816 310816 310816
       84 310819 310819 310819 310819
       85 310820 310820 310820 310820
       86 310821 310821 310821 310821
       87 310822 310822 310822 310822
       88 310823 310823 310823 310823
       89 310824 310824 310824 310824
       90 310826 310826 310826 310826
       91 310827 310827 310827 310827
       92 310829 310829 310829 310829
       93 310832 310832 310832 310832
       94 310839 310839 310839 310839
       95 310840 310840 310840 310840
       96 310842 310842 310842 310842
       97 310843 310843 310843 310843
       98 310844 310844 310844 310844
       99 310847 310847 310847 310847
       100 310849 310849 310849 310849
       101 310852 310852 310852 310852
       102 310853 310853 310853 310853
       103 310854 310854 310854 310854
       104 310855 310855 310855 310855
       105 310856 310856 310856 310856
       106 310857 310857 310857 310857
       107 310859 310859 310859 310859
       108 310860 310860 310860 310860
       109 310862 310862 310862 310862
       110 310865 310865 310865 310865
       111 310871 310871 310871 310871
       112 310872 310872 310872 310872
       113 310875 310875 310875 310875
       114 310876 310876 310876 310876
       115 310877 310877 310877 310877
       116 310880 310880 310880 310880
       117 310882 310882 310882 310882
       118 310885 310885 310885 310885
       119 310886 310886 310886 310886
       120 310887 310887 310887 310887
       121 310888 310888 310888 310888
       122 310889 310889 310889 310889
       123 310890 310890 310890 310890
       124 310892 310892 310892 310892
       125 310893 310893 310893 310893
       126 310895 310895 310895 310895
       127 310898 310898 310898 310898
       128 310903 310903 310903 310903
       129 310904 310904 310904 310904
       130 310906 310906 310906 310906
       131 310909 310909 310909 310909
       132 310910 310910 310910 310910
       133 310911 310911 310911 310911
       134 310914 310914 310914 310914
       135 310916 310916 310916 310916
       136 310919 310919 310919 310919
       137 310920 310920 310920 310920
       138 310921 310921 310921 310921
       139 310922 310922 310922 310922
       140 310923 310923 310923 310923
       141 310924 310924 310924 310924
       142 310926 310926 310926 310926
       143 310927 310927 310927 310927
       144 310929 310929 310929 310929
       145 310932 310932 310932 310932
       146 310937 310937 310937 310937
       147 310939 310939 310939 310939
       148 310942 310942 310942 310942
       149 310943 310943 310943 310943
       150 310944 310944 310944 310944
       151 310947 310947 310947 310947
       152 310949 310949 310949 310949
       153 310952 310952 310952 310952
       154 310953 310953 310953 310953
       155 310954 310954 310954 310954
       156 310955 310955 310955 310955
       157 310956 310956 310956 310956
       158 310957 310957 310957 310957
       159 310959 310959 310959 310959
       160 310960 310960 310960 310960
       161 310962 310962 310962 310962
       162 310965 310965 310965 310965
       163 310971 310971 310971 310971
       164 310972 310972 310972 310972
       165 310975 310975 310975 310975
       166 310976 310976 310976 310976
       167 310979 310979 310979 310979
       168 310981 310981 310981 310981
       169 310984 310984 310984 310984
       170 310985 310985 310985 310985
       171 310986 310986 310986 310986
       172 310987 310987 310987 310987
       173 310988 310988 310988 310988
       174 310989 310989 310989 310989
       175 310991 310991 310991 310991
       176 310992 310992 310992 310992
       177 310994 310994 310994 310994
       178 310997 310997 310997 310997
       179 311004 311004 311004 311004
       180 311007 311007 311007 311007
       181 311009 311009 311009 311009
       182 311012 311012 311012 311012
       183 311014 311014 311014 311014
       184 311017 311017 311017 311017
       185 311018 311018 311018 311018
       186 311019 311019 311019 311019
       187 311020 311020 311020 311020
       188 311021 311021 311021 311021
       189 311022 311022 311022 311022
       190 311024 311024 311024 311024
       191 311025 311025 311025 311025
       192 311027 311027 311027 311027
       193 311030 311030 311030 311030
       194 311035 311035 311035 311035
       195 311037 311037 311037 311037
       196 311038 311038 311038 311038
       197 311041 311041 311041 311041
       198 311043 311043 311043 311043
       199 311046 311046 311046 311046
       200 311048 311048 311048 311048
       201 311051 311051 311051 311051
       202 311052 311052 311052 311052
       203 311053 311053 311053 311053
       204 311054 311054 311054 311054
       205 311055 311055 311055 311055
       206 311056 311056 311056 311056
       207 311058 311058 311058 311058
       208 311059 311059 311059 311059
       209 311061 311061 311061 311061
       210 311064 311064 311064 311064
       211 311069 311069 311069 311069
       212 311071 311071 311071 311071
       213 311074 311074 311074 311074
       214 311076 311076 311076 311076
       215 311078 311078 311078 311078
       216 311080 311080 311080 311080
       217 311083 311083 311083 311083
       218 311084 311084 311084 311084
       219 311085 311085 311085 311085
       220 311086 311086 311086 311086
       221 311087 311087 311087 311087
       222 311088 311088 311088 311088
       223 311090 311090 311090 311090
       224 311091 311091 311091 311091
       225 311093 311093 311093 311093
       226 311096 311096 311096 311096
       227 311101 311101 311101 311101
       228 311104 311104 311104 311104
       229 311105 311105 311105 311105
       230 311108 311108 311108 311108
       231 311110 311110 311110 311110
       232 311113 311113 311113 311113
       233 311115 311115 311115 311115
       234 311118 311118 311118 311118
       235 311119 311119 311119 311119
       236 311120 311120 311120 311120
       237 311121 311121 311121 311121
       238 311122 311122 311122 311122
       239 311124 311124 311124 311124
       240 311125 311125 311125 311125
       241 311127 311127 311127 311127
       242 311130 311130 311130 311130
       243 311135 311135 311135 311135
       244 311137 311137 311137 311137
       245 311140 311140 311140 311140
       246 311143 311143 311143 311143
       247 311145 311145 311145 311145
       248 311147 311147 311147 311147
       249 311151 311151 311151 311151
       250 311152 311152 311152 311152
       251 311153 311153 311153 311153
       252 311154 311154 311154 311154
       253 311155 311155 311155 311155
       254 311157 311157 311157 311157
       255 311158 311158 311158 311158
       256 311160 311160 311160 311160
       257 311163 311163 311163 311163
       258 311168 311168 311168 311168
       259 311169 311169 311169 311169
       260 311171 311171 311171 311171
       261 311174 311174 311174 311174
       262 311177 311177 311177 311177
       263 311180 311180 311180 311180
       264 311184 311184 311184 311184
       265 311185 311185 311185 311185
       266 311186 311186 311186 311186
       267 311187 311187 311187 311187
       268 311188 311188 311188 311188
       269 311190 311190 311190 311190
       270 311191 311191 311191 311191
       271 311193 311193 311193 311193
       272 311196 311196 311196 311196
       273 311203 311203 311203 311203
       274 311204 311204 311204 311204
       275 311207 311207 311207 311207
       276 311209 311209 311209 311209
       277 311214 311214 311214 311214
       278 311218 311218 311218 311218
       279 311219 311219 311219 311219
       280 311220 311220 311220 311220
       281 311221 311221 311221 311221
       282 311222 311222 311222 311222
       283 311224 311224 311224 311224
       284 311225 311225 311225 311225
       285 311227 311227 311227 311227
       286 311230 311230 311230 311230
       287 311235 311235 311235 311235
       288 311237 311237 311237 311237
       289 311240 311240 311240 311240
       290 311242 311242 311242 311242
       291 311247 311247 311247 311247
       292 311251 311251 311251 311251
       293 311252 311252 311252 311252
       294 311253 311253 311253 311253
       295 311254 311254 311254 311254
       296 311255 311255 311255 311255
       297 311257 311257 311257 311257
       298 311258 311258 311258 311258
       299 311260 311260 311260 311260
       300 311263 311263 311263 311263
       301 311268 311268 311268 311268
       302 311270 311270 311270 311270
       303 311271 311271 311271 311271
       304 311273 311273 311273 311273
       305 311281 311281 311281 311281
       306 311282 311282 311282 311282
       307 311283 311283 311283 311283
       308 311284 311284 311284 311284
       309 311285 311285 311285 311285
       310 311287 311287 311287 311287
       311 311288 311288 311288 311288
       312 311290 311290 311290 311290
       313 311293 311293 311293 311293
       314 311298 311298 311298 311298
       315 311300 311300 311300 311300
       316 311302 311302 311302 311302
       317 311303 311303 311303 311303
       318 311305 311305 311305 311305
       319 311314 311314 311314 311314
       320 311315 311315 311315 311315
       321 311316 311316 311316 311316
       322 311317 311317 311317 311317
       323 311318 311318 311318 311318
       324 311320 311320 311320 311320
       325 311321 311321 311321 311321
       326 311323 311323 311323 311323
       327 311326 311326 311326 311326
       328 311331 311331 311331 311331
       329 311332 311332 311332 311332
       330 311333 311333 311333 311333
       331 311336 311336 311336 311336
       332 311337 311337 311337 311337
       333 311338 311338 311338 311338
       334 311340 311340 311340 311340
       335 311349 311349 311349 311349
       336 311350 311350 311350 311350
       337 311351 311351 311351 311351
       338 311352 311352 311352 311352
       339 311353 311353 311353 311353
       340 311355 311355 311355 311355
       341 311356 311356 311356 311356
       342 311358 311358 311358 311358
       343 311361 311361 311361 311361
       344 311367 311367 311367 311367
       345 311368 311368 311368 311368
       346 311370 311370 311370 311370
       347 311371 311371 311371 311371
       348 311373 311373 311373 311373
       349 311382 311382 311382 311382
       350 311383 311383 311383 311383
       351 311384 311384 311384 311384
       352 311385 311385 311385 311385
       353 311386 311386 311386 311386
       354 311388 311388 311388 311388
       355 311389 311389 311389 311389
       356 311391 311391 311391 311391
       357 311394 311394 311394 311394
       358 311400 311400 311400 311400
       359 311402 311402 311402 311402
       360 311403 311403 311403 311403
       361 311405 311405 311405 311405
       362 311406 311406 311406 311406
       363 311408 311408 311408 311408
       364 311417 311417 311417 311417
       365 311418 311418 311418 311418
       366 311419 311419 311419 311419
       367 311420 311420 311420 311420
       368 311421 311421 311421 311421
       369 311423 311423 311423 311423
       370 311424 311424 311424 311424
       371 311426 311426 311426 311426
       372 311429 311429 311429 311429
       373 311436 311436 311436 311436
       374 311438 311438 311438 311438
       375 311439 311439 311439 311439
       376 311441 311441 311441 311441
       377 311442 311442 311442 311442
       378 311444 311444 311444 311444
       379 311453 311453 311453 311453
       380 311454 311454 311454 311454
       381 311455 311455 311455 311455
       382 311456 311456 311456 311456
       383 311457 311457 311457 311457
       384 311459 311459 311459 311459
       385 311460 311460 311460 311460
       386 311462 311462 311462 311462
       387 311465 311465 311465 311465
       388 311470 311470 311470 311470
       389 311472 311472 311472 311472
       390 311473 311473 311473 311473
       391 311475 311475 311475 311475
       392 311476 311476 311476 311476
       393 311478 311478 311478 311478
       394 311487 311487 311487 311487
       395 311488 311488 311488 311488
       396 311489 311489 311489 311489
       397 311490 311490 311490 311490
       398 311491 311491 311491 311491
       399 311494 311494 311494 311494
       400 311496 311496 311496 311496
       401 311499 311499 311499 311499
       402 311504 311504 311504 311504
       403 311505 311505 311505 311505
       404 311507 311507 311507 311507
       405 311508 311508 311508 311508
       406 311510 311510 311510 311510
       407 311519 311519 311519 311519
       408 311520 311520 311520 311520
       409 311521 311521 311521 311521
       410 311522 311522 311522 311522
       411 311523 311523 311523 311523
       412 311526 311526 311526 311526
       413 311528 311528 311528 311528
       414 311531 311531 311531 311531
       415 311537 311537 311537 311537
       416 311538 311538 311538 311538
       417 311540 311540 311540 311540
       418 311541 311541 311541 311541
       419 311543 311543 311543 311543
       420 311552 311552 311552 311552
       421 311553 311553 311553 311553
       422 311554 311554 311554 311554
       423 311555 311555 311555 311555
       424 311556 311556 311556 311556
       425 311559 311559 311559 311559
       426 311561 311561 311561 311561
       427 311564 311564 311564 311564
       428 311571 311571 311571 311571
       429 311573 311573 311573 311573
       430 311575 311575 311575 311575
       431 311576 311576 311576 311576
       432 311579 311579 311579 311579
       433 311588 311588 311588 311588
       434 311589 311589 311589 311589
       435 311590 311590 311590 311590
       436 311591 311591 311591 311591
       437 311592 311592 311592 311592
       438 311595 311595 311595 311595
       439 311597 311597 311597 311597
       440 311600 311600 311600 311600
       441 311605 311605 311605 311605
       442 311606 311606 311606 311606
       443 311608 311608 311608 311608
       444 311611 311611 311611 311611
       445 311620 311620 311620 311620
       446 311621 311621 311621 311621
       447 311622 311622 311622 311622
       448 311623 311623 311623 311623
       449 311624 311624 311624 311624
       450 311627 311627 311627 311627
       451 311629 311629 311629 311629
       452 311632 311632 311632 311632
       453 311637 311637 311637 311637
       454 311640 311640 311640 311640
       455 311641 311641 311641 311641
       456 311644 311644 311644 311644
       457 311646 311646 311646 311646
       458 311655 311655 311655 311655
       459 311656 311656 311656 311656
       460 311657 311657 311657 311657
       461 311658 311658 311658 311658
       462 311659 311659 311659 311659
       463 311662 311662 311662 311662
       464 311664 311664 311664 311664
       465 311667 311667 311667 311667
       466 311668 311668 311668 311668
       467 311673 311673 311673 311673
       468 311677 311677 311677 311677
       469 311679 311679 311679 311679
       470 311688 311688 311688 311688
       471 311689 311689 311689 311689
       472 311690 311690 311690 311690
       473 311691 311691 311691 311691
       474 311692 311692 311692 311692
       475 311695 311695 311695 311695
       476 311697 311697 311697 311697
       477 311700 311700 311700 311700
       478 311701 311701 311701 311701
       479 311705 311705 311705 311705
       480 311706 311706 311706 311706
       481 311708 311708 311708 311708
       482 311720 311720 311720 311720
       483 311721 311721 311721 311721
       484 311722 311722 311722 311722
       485 311723 311723 311723 311723
       486 311724 311724 311724 311724
       487 311727 311727 311727 311727
       488 311729 311729 311729 311729
       489 311732 311732 311732 311732
       490 311733 311733 311733 311733
       491 311737 311737 311737 311737
       492 311738 311738 311738 311738
       493 311739 311739 311739 311739
       494 311741 311741 311741 311741
       495 311753 311753 311753 311753
       496 311754 311754 311754 311754
       497 311755 311755 311755 311755
       498 311756 311756 311756 311756
       499 311757 311757 311757 311757
       500 311760 311760 311760 311760
       501 311762 311762 311762 311762
       502 311765 311765 311765 311765
       503 311766 311766 311766 311766
       504 311771 311771 311771 311771
       505 311772 311772 311772 311772
       506 311773 311773 311773 311773
       507 311774 311774 311774 311774
       508 311775 311775 311775 311775
       509 311776 311776 311776 311776
       510 311788 311788 311788 311788
       511 311789 311789 311789 311789
       512 311790 311790 311790 311790
       513 311791 311791 311791 311791
       514 311792 311792 311792 311792
       515 311795 311795 311795 311795
       516 311797 311797 311797 311797
       517 311800 311800 311800 311800
       518 311801 311801 311801 311801
       519 311806 311806 311806 311806
       520 311807 311807 311807 311807
       521 311809 311809 311809 311809
       522 311821 311821 311821 311821
       523 311822 311822 311822 311822
       524 311823 311823 311823 311823
       525 311824 311824 311824 311824
       526 311825 311825 311825 311825
       527 311828 311828 311828 311828
       528 311830 311830 311830 311830
       529 311834 311834 311834 311834
       530 311839 311839 311839 311839
       531 311840 311840 311840 311840
       532 311841 311841 311841 311841
       533 311842 311842 311842 311842
       534 311843 311843 311843 311843
       535 311845 311845 311845 311845
       536 311857 311857 311857 311857
       537 311858 311858 311858 311858
       538 311859 311859 311859 311859
       539 311860 311860 311860 311860
       540 311861 311861 311861 311861
       541 311864 311864 311864 311864
       542 311866 311866 311866 311866
       543 311870 311870 311870 311870
       544 311874 311874 311874 311874
       545 311875 311875 311875 311875
       546 311876 311876 311876 311876
       547 311877 311877 311877 311877
       548 311879 311879 311879 311879
       549 311890 311890 311890 311890
       550 311891 311891 311891 311891
       551 311892 311892 311892 311892
       552 311893 311893 311893 311893
       553 311894 311894 311894 311894
       554 311898 311898 311898 311898
       555 311902 311902 311902 311902
       556 311907 311907 311907 311907
       557 311908 311908 311908 311908
       558 311909 311909 311909 311909
       559 311911 311911 311911 311911
       560 311923 311923 311923 311923
       561 311924 311924 311924 311924
       562 311925 311925 311925 311925
       563 311926 311926 311926 311926
       564 311927 311927 311927 311927
       565 311932 311932 311932 311932
       566 311936 311936 311936 311936
       567 311940 311940 311940 311940
       568 311941 311941 311941 311941
       569 311943 311943 311943 311943
       570 311949 311949 311949 311949
       571 311955 311955 311955 311955
       572 311956 311956 311956 311956
       573 311957 311957 311957 311957
       574 311958 311958 311958 311958
       575 311959 311959 311959 311959
       576 311964 311964 311964 311964
       577 311968 311968 311968 311968
       578 311972 311972 311972 311972
       579 311973 311973 311973 311973
       580 311976 311976 311976 311976
       581 311982 311982 311982 311982
       582 311988 311988 311988 311988
       583 311989 311989 311989 311989
       584 311990 311990 311990 311990
       585 311991 311991 311991 311991
       586 311992 311992 311992 311992
       587 311997 311997 311997 311997
       588 312001 312001 312001 312001
       589 312006 312006 312006 312006
       590 312007 312007 312007 312007
       591 312008 312008 312008 312008
       592 312009 312009 312009 312009
       593 312017 312017 312017 312017
       594 312023 312023 312023 312023
       595 312024 312024 312024 312024
       596 312025 312025 312025 312025
       597 312026 312026 312026 312026
       598 312027 312027 312027 312027
       599 312032 312032 312032 312032
       600 312036 312036 312036 312036
       601 312040 312040 312040 312040
       602 312041 312041 312041 312041
       603 312042 312042 312042 312042
       604 312045 312045 312045 312045
       605 312051 312051 312051 312051
       606 312053 312053 312053 312053
       607 312057 312057 312057 312057
       608 312058 312058 312058 312058
       609 312059 312059 312059 312059
       610 312060 312060 312060 312060
       611 312061 312061 312061 312061
       612 312066 312066 312066 312066
       613 312069 312069 312069 312069
       614 312073 312073 312073 312073
       615 312074 312074 312074 312074
       616 312075 312075 312075 312075
       617 312076 312076 312076 312076
       618 312079 312079 312079 312079
       619 312085 312085 312085 312085
       620 312087 312087 312087 312087
       621 312091 312091 312091 312091
       622 312092 312092 312092 312092
       623 312093 312093 312093 312093
       624 312094 312094 312094 312094
       625 312095 312095 312095 312095
       626 312100 312100 312100 312100
       627 312104 312104 312104 312104
       628 312108 312108 312108 312108
       629 312109 312109 312109 312109
       630 312112 312112 312112 312112
       631 312118 312118 312118 312118
       632 312120 312120 312120 312120
       633 312124 312124 312124 312124
       634 312125 312125 312125 312125
       635 312126 312126 312126 312126
       636 312127 312127 312127 312127
       637 312128 312128 312128 312128
       638 312133 312133 312133 312133
       639 312137 312137 312137 312137
       640 312141 312141 312141 312141
       641 312142 312142 312142 312142
       642 312145 312145 312145 312145
       643 312151 312151 312151 312151
       644 312153 312153 312153 312153
       645 312157 312157 312157 312157
       646 312158 312158 312158 312158
       647 312159 312159 312159 312159
       648 312160 312160 312160 312160
       649 312161 312161 312161 312161
       650 312166 312166 312166 312166
       651 312170 312170 312170 312170
       652 312174 312174 312174 312174
       653 312175 312175 312175 312175
       654 312176 312176 312176 312176
       655 312177 312177 312177 312177
       656 312180 312180 312180 312180
       657 312186 312186 312186 312186
       658 312188 312188 312188 312188
       659 312192 312192 312192 312192
       660 312193 312193 312193 312193
       661 312194 312194 312194 312194
       662 312195 312195 312195 312195
       663 312196 312196 312196 312196
       664 312201 312201 312201 312201
       665 312205 312205 312205 312205
       666 312210 312210 312210 312210
       667 312211 312211 312211 312211
       668 312214 312214 312214 312214
       669 312220 312220 312220 312220
       670 312222 312222 312222 312222
       671 312226 312226 312226 312226
       672 312227 312227 312227 312227
       673 312228 312228 312228 312228
       674 312229 312229 312229 312229
       675 312230 312230 312230 312230
       676 312235 312235 312235 312235
       677 312239 312239 312239 312239
       678 312243 312243 312243 312243
       679 312244 312244 312244 312244
       680 312245 312245 312245 312245
       681 312248 312248 312248 312248
       682 312254 312254 312254 312254
       683 312256 312256 312256 312256
       684 312260 312260 312260 312260
       685 312261 312261 312261 312261
       686 312262 312262 312262 312262
       687 312263 312263 312263 312263
       688 312264 312264 312264 312264
       689 312269 312269 312269 312269
       690 312273 312273 312273 312273
       691 312279 312279 312279 312279
       692 312280 312280 312280 312280
       693 312281 312281 312281 312281
       694 312284 312284 312284 312284
       695 312289 312289 312289 312289
       696 312291 312291 312291 312291
       697 312295 312295 312295 312295
       698 312296 312296 312296 312296
       699 312297 312297 312297 312297
       700 312298 312298 312298 312298
       701 312299 312299 312299 312299
       702 312303 312303 312303 312303
       703 312304 312304 312304 312304
       704 312308 312308 312308 312308
       705 312314 312314 312314 312314
       706 312315 312315 312315 312315
       707 312318 312318 312318 312318
       708 312320 312320 312320 312320
       709 312324 312324 312324 312324
       710 312326 312326 312326 312326
       711 312330 312330 312330 312330
       712 312331 312331 312331 312331
       713 312332 312332 312332 312332
       714 312333 312333 312333 312333
       715 312334 312334 312334 312334
       716 312338 312338 312338 312338
       717 312339 312339 312339 312339
       718 312343 312343 312343 312343
       719 312347 312347 312347 312347
       720 312348 312348 312348 312348
       721 312350 312350 312350 312350
       722 312351 312351 312351 312351
       723 312353 312353 312353 312353
       724 312357 312357 312357 312357
       725 312359 312359 312359 312359
       726 312363 312363 312363 312363
       727 312364 312364 312364 312364
       728 312365 312365 312365 312365
       729 312366 312366 312366 312366
       730 312367 312367 312367 312367
       731 312371 312371 312371 312371
       732 312372 312372 312372 312372
       733 312376 312376 312376 312376
       734 312379 312379 312379 312379
       735 312380 312380 312380 312380
       736 312382 312382 312382 312382
       737 312383 312383 312383 312383
       738 312385 312385 312385 312385
       739 312388 312388 312388 312388
       740 312390 312390 312390 312390
       741 312394 312394 312394 312394
       742 312395 312395 312395 312395
       743 312396 312396 312396 312396
       744 312397 312397 312397 312397
       745 312398 312398 312398 312398
       746 312402 312402 312402 312402
       747 312403 312403 312403 312403
       748 312407 312407 312407 312407
       749 312411 312411 312411 312411
       750 312412 312412 312412 312412
       751 312414 312414 312414 312414
       752 312415 312415 312415 312415
       753 312417 312417 312417 312417
       754 312421 312421 312421 312421
       755 312423 312423 312423 312423
       756 312427 312427 312427 312427
       757 312428 312428 312428 312428
       758 312429 312429 312429 312429
       759 312430 312430 312430 312430
       760 312431 312431 312431 312431
       761 312435 312435 312435 312435
       762 312436 312436 312436 312436
       763 312440 312440 312440 312440
       764 312443 312443 312443 312443
       765 312444 312444 312444 312444
       766 312445 312445 312445 312445
       767 312447 312447 312447 312447
       768 312448 312448 312448 312448
       769 312450 312450 312450 312450
       770 312454 312454 312454 312454
       771 312456 312456 312456 312456
       772 312460 312460 312460 312460
       773 312461 312461 312461 312461
       774 312462 312462 312462 312462
       775 312463 312463 312463 312463
       776 312464 312464 312464 312464
       777 312468 312468 312468 312468
       778 312469 312469 312469 312469
       779 312473 312473 312473 312473
       780 312476 312476 312476 312476
       781 312477 312477 312477 312477
       782 312479 312479 312479 312479
       783 312480 312480 312480 312480
       784 312482 312482 312482 312482
       785 312487 312487 312487 312487
       786 312491 312491 312491 312491
       787 312492 312492 312492 312492
       788 312493 312493 312493 312493
       789 312494 312494 312494 312494
       790 312495 312495 312495 312495
       791 312499 312499 312499 312499
       792 312500 312500 312500 312500
       793 312504 312504 312504 312504
       794 312510 312510 312510 312510
       795 312511 312511 312511 312511
       796 312512 312512 312512 312512
       797 312514 312514 312514 312514
       798 312515 312515 312515 312515
       799 312517 312517 312517 312517
       800 312521 312521 312521 312521
       801 312523 312523 312523 312523
       802 312527 312527 312527 312527
       803 312528 312528 312528 312528
       804 312529 312529 312529 312529
       805 312530 312530 312530 312530
       806 312531 312531 312531 312531
       807 312535 312535 312535 312535
       808 312536 312536 312536 312536
       809 312540 312540 312540 312540
       810 312543 312543 312543 312543
       811 312545 312545 312545 312545
       812 312546 312546 312546 312546
       813 312548 312548 312548 312548
       814 312550 312550 312550 312550
       815 312554 312554 312554 312554
       816 312556 312556 312556 312556
       817 312560 312560 312560 312560
       818 312561 312561 312561 312561
       819 312562 312562 312562 312562
       820 312563 312563 312563 312563
       821 312564 312564 312564 312564
       822 312568 312568 312568 312568
       823 312569 312569 312569 312569
       824 312573 312573 312573 312573
       825 312578 312578 312578 312578
       826 312579 312579 312579 312579
       827 312582 312582 312582 312582
       828 312584 312584 312584 312584
       829 312586 312586 312586 312586
       830 312594 312594 312594 312594
       831 312595 312595 312595 312595
       832 312596 312596 312596 312596
       833 312597 312597 312597 312597
       834 312598 312598 312598 312598
       835 312602 312602 312602 312602
       836 312603 312603 312603 312603
       837 312607 312607 312607 312607
       838 312611 312611 312611 312611
       839 312613 312613 312613 312613
       840 312614 312614 312614 312614
       841 312617 312617 312617 312617
       842 312619 312619 312619 312619
       843 312623 312623 312623 312623
       844 312625 312625 312625 312625
       845 312629 312629 312629 312629
       846 312630 312630 312630 312630
       847 312631 312631 312631 312631
       848 312632 312632 312632 312632
       849 312633 312633 312633 312633
       850 312637 312637 312637 312637
       851 312638 312638 312638 312638
       852 312642 312642 312642 312642
       853 312647 312647 312647 312647
       854 312648 312648 312648 312648
       855 312651 312651 312651 312651
       856 312653 312653 312653 312653
       857 312657 312657 312657 312657
       858 312659 312659 312659 312659
       859 312663 312663 312663 312663
       860 312664 312664 312664 312664
       861 312665 312665 312665 312665
       862 312666 312666 312666 312666
       863 312670 312670 312670 312670
       864 312671 312671 312671 312671
       865 312675 312675 312675 312675
       866 312681 312681 312681 312681
       867 312682 312682 312682 312682
       868 312685 312685 312685 312685
       869 312687 312687 312687 312687
       870 312691 312691 312691 312691
       871 312693 312693 312693 312693
       872 312697 312697 312697 312697
       873 312698 312698 312698 312698
       874 312699 312699 312699 312699
       875 312700 312700 312700 312700
       876 312704 312704 312704 312704
       877 312705 312705 312705 312705
       878 312709 312709 312709 312709
       879 312714 312714 312714 312714
       880 312715 312715 312715 312715
       881 312718 312718 312718 312718
       882 312720 312720 312720 312720
       883 312724 312724 312724 312724
       884 312726 312726 312726 312726
       885 312730 312730 312730 312730
       886 312731 312731 312731 312731
       887 312732 312732 312732 312732
       888 312733 312733 312733 312733
       889 312737 312737 312737 312737
       890 312738 312738 312738 312738
       891 312742 312742 312742 312742
       892 312748 312748 312748 312748
       893 312749 312749 312749 312749
       894 312752 312752 312752 312752
       895 312754 312754 312754 312754
       896 312758 312758 312758 312758
       897 312760 312760 312760 312760
       898 312762 312762 312762 312762
       899 312765 312765 312765 312765
       900 312766 312766 312766 312766
       901 312767 312767 312767 312767
       902 312768 312768 312768 312768
       903 312772 312772 312772 312772
       904 312773 312773 312773 312773
       905 312777 312777 312777 312777
       906 312781 312781 312781 312781
       907 312782 312782 312782 312782
       908 312784 312784 312784 312784
       909 312785 312785 312785 312785
       910 312787 312787 312787 312787
       911 312791 312791 312791 312791
       912 312793 312793 312793 312793
       913 312795 312795 312795 312795
       914 312798 312798 312798 312798
       915 312799 312799 312799 312799
       916 312800 312800 312800 312800
       917 312801 312801 312801 312801
       918 312805 312805 312805 312805
       919 312806 312806 312806 312806
       920 312810 312810 312810 312810
       921 312815 312815 312815 312815
       922 312816 312816 312816 312816
       923 312818 312818 312818 312818
       924 312819 312819 312819 312819
       925 312821 312821 312821 312821
       926 312825 312825 312825 312825
       927 312827 312827 312827 312827
       928 312829 312829 312829 312829
       929 312832 312832 312832 312832
       930 312833 312833 312833 312833
       931 312834 312834 312834 312834
       932 312835 312835 312835 312835
       933 312839 312839 312839 312839
       934 312840 312840 312840 312840
       935 312844 312844 312844 312844
       936 312848 312848 312848 312848
       937 312849 312849 312849 312849
       938 312851 312851 312851 312851
       939 312858 312858 312858 312858
       940 312860 312860 312860 312860
       941 312862 312862 312862 312862
       942 312865 312865 312865 312865
       943 312866 312866 312866 312866
       944 312867 312867 312867 312867
       945 312868 312868 312868 312868
       946 312872 312872 312872 312872
       947 312873 312873 312873 312873
       948 312874 312874 312874 312874
       949 312877 312877 312877 312877
       950 312881 312881 312881 312881
       951 312882 312882 312882 312882
       952 312884 312884 312884 312884
       953 312890 312890 312890 312890
       954 312892 312892 312892 312892
       955 312894 312894 312894 312894
       956 312897 312897 312897 312897
       957 312898 312898 312898 312898
       958 312899 312899 312899 312899
       959 312900 312900 312900 312900
       960 312904 312904 312904 312904
       961 312905 312905 312905 312905
       962 312906 312906 312906 312906
       963 312909 312909 312909 312909
       964 312914 312914 312914 312914
       965 312916 312916 312916 312916
       966 312923 312923 312923 312923
       967 312925 312925 312925 312925
       968 312927 312927 312927 312927
       969 312930 312930 312930 312930
       970 312931 312931 312931 312931
       971 312932 312932 312932 312932
       972 312933 312933 312933 312933
       973 312937 312937 312937 312937
       974 312938 312938 312938 312938
       975 312939 312939 312939 312939
       976 312942 312942 312942 312942
       977 312946 312946 312946 312946
       978 312947 312947 312947 312947
       979 312949 312949 312949 312949
       980 312956 312956 312956 312956
       981 312958 312958 312958 312958
       982 312961 312961 312961 312961
       983 312963 312963 312963 312963
       984 312964 312964 312964 312964
       985 312965 312965 312965 312965
       986 312966 312966 312966 312966
       987 312970 312970 312970 312970
       988 312971 312971 312971 312971
       989 312972 312972 312972 312972
       990 312975 312975 312975 312975
       991 312979 312979 312979 312979
       992 312980 312980 312980 312980
       993 312981 312981 312981 312981
       994 312987 312987 312987 312987
       995 312989 312989 312989 312989
       996 312991 312991 312991 312991
       997 312994 312994 312994 312994
       998 312995 312995 312995 312995
       999 312996 312996 312996 312996
       1000 312997 312997 312997 312997
       1001 313001 313001 313001 313001
       1002 313002 313002 313002 313002
       1003 313003 313003 313003 313003
       1004 313006 313006 313006 313006
       1005 313012 313012 313012 313012
       1006 313021 313021 313021 313021
       1007 313023 313023 313023 313023
       1008 313026 313026 313026 313026
       1009 313028 313028 313028 313028
       1010 313029 313029 313029 313029
       1011 313030 313030 313030 313030
       1012 313031 313031 313031 313031
       1013 313035 313035 313035 313035
       1014 313036 313036 313036 313036
       1015 313037 313037 313037 313037
       1016 313040 313040 313040 313040
       1017 313044 313044 313044 313044
       1018 313045 313045 313045 313045
       1019 313055 313055 313055 313055
       1020 313057 313057 313057 313057
       1021 313059 313059 313059 313059
       1022 313062 313062 313062 313062
       1023 313063 313063 313063 313063
       1024 313064 313064 313064 313064
       1025 313065 313065 313065 313065
       1026 313069 313069 313069 313069
       1027 313070 313070 313070 313070
       1028 313071 313071 313071 313071
       1029 313074 313074 313074 313074
       1030 313078 313078 313078 313078
       1031 313087 313087 313087 313087
       1032 313089 313089 313089 313089
       1033 313091 313091 313091 313091
       1034 313093 313093 313093 313093
       1035 313094 313094 313094 313094
       1036 313095 313095 313095 313095
       1037 313096 313096 313096 313096
       1038 313100 313100 313100 313100
       1039 313101 313101 313101 313101
       1040 313102 313102 313102 313102
       1041 313105 313105 313105 313105
       1042 313109 313109 313109 313109
       1043 313110 313110 313110 313110
       1044 313111 313111 313111 313111
       1045 313121 313121 313121 313121
       1046 313123 313123 313123 313123
       1047 313125 313125 313125 313125
       1048 313128 313128 313128 313128
       1049 313129 313129 313129 313129
       1050 313130 313130 313130 313130
       1051 313131 313131 313131 313131
       1052 313135 313135 313135 313135
       1053 313136 313136 313136 313136
       1054 313137 313137 313137 313137
       1055 313140 313140 313140 313140
       1056 313145 313145 313145 313145
       1057 313154 313154 313154 313154
       1058 313156 313156 313156 313156
       1059 313158 313158 313158 313158
       1060 313160 313160 313160 313160
       1061 313161 313161 313161 313161
       1062 313162 313162 313162 313162
       1063 313166 313166 313166 313166
       1064 313167 313167 313167 313167
       1065 313168 313168 313168 313168
       1066 313171 313171 313171 313171
       1067 313176 313176 313176 313176
       1068 313186 313186 313186 313186
       1069 313187 313187 313187 313187
       1070 313189 313189 313189 313189
       1071 313193 313193 313193 313193
       1072 313194 313194 313194 313194
       1073 313195 313195 313195 313195
       1074 313199 313199 313199 313199
       1075 313200 313200 313200 313200
       1076 313201 313201 313201 313201
       1077 313204 313204 313204 313204
       1078 313208 313208 313208 313208
       1079 313210 313210 313210 313210
       1080 313220 313220 313220 313220
       1081 313222 313222 313222 313222
       1082 313224 313224 313224 313224
       1083 313228 313228 313228 313228
       1084 313229 313229 313229 313229
       1085 313230 313230 313230 313230
       1086 313234 313234 313234 313234
       1087 313235 313235 313235 313235
       1088 313236 313236 313236 313236
       1089 313239 313239 313239 313239
       1090 313243 313243 313243 313243
       1091 313244 313244 313244 313244
       1092 313245 313245 313245 313245
       1093 313256 313256 313256 313256
       1094 313257 313257 313257 313257
       1095 313259 313259 313259 313259
       1096 313263 313263 313263 313263
       1097 313264 313264 313264 313264
       1098 313265 313265 313265 313265
       1099 313269 313269 313269 313269
       1100 313270 313270 313270 313270
       1101 313271 313271 313271 313271
       1102 313274 313274 313274 313274
       1103 313278 313278 313278 313278
       1104 313279 313279 313279 313279
       1105 313290 313290 313290 313290
       1106 313291 313291 313291 313291
       1107 313293 313293 313293 313293
       1108 313297 313297 313297 313297
       1109 313298 313298 313298 313298
       1110 313299 313299 313299 313299
       1111 313304 313304 313304 313304
       1112 313305 313305 313305 313305
       1113 313308 313308 313308 313308
       1114 313312 313312 313312 313312
       1115 313322 313322 313322 313322
       1116 313324 313324 313324 313324
       1117 313326 313326 313326 313326
       1118 313330 313330 313330 313330
       1119 313331 313331 313331 313331
       1120 313332 313332 313332 313332
       1121 313337 313337 313337 313337
       1122 313338 313338 313338 313338
       1123 313341 313341 313341 313341
       1124 313346 313346 313346 313346
       1125 313348 313348 313348 313348
       1126 313357 313357 313357 313357
       1127 313359 313359 313359 313359
       1128 313361 313361 313361 313361
       1129 313365 313365 313365 313365
       1130 313366 313366 313366 313366
       1131 313367 313367 313367 313367
       1132 313372 313372 313372 313372
       1133 313373 313373 313373 313373
       1134 313376 313376 313376 313376
       1135 313381 313381 313381 313381
       1136 313391 313391 313391 313391
       1137 313393 313393 313393 313393
       1138 313396 313396 313396 313396
       1139 313399 313399 313399 313399
       1140 313400 313400 313400 313400
       1141 313401 313401 313401 313401
       1142 313406 313406 313406 313406
       1143 313407 313407 313407 313407
       1144 313410 313410 313410 313410
       1145 313419 313419 313419 313419
       1146 313429 313429 313429 313429
       1147 313431 313431 313431 313431
       1148 313433 313433 313433 313433
       1149 313437 313437 313437 313437
       1150 313438 313438 313438 313438
       1151 313439 313439 313439 313439
       1152 313444 313444 313444 313444
       1153 313445 313445 313445 313445
       1154 313448 313448 313448 313448
       1155 313452 313452 313452 313452
       1156 313454 313454 313454 313454
       1157 313464 313464 313464 313464
       1158 313466 313466 313466 313466
       1159 313469 313469 313469 313469
       1160 313472 313472 313472 313472
       1161 313473 313473 313473 313473
       1162 313474 313474 313474 313474
       1163 313479 313479 313479 313479
       1164 313480 313480 313480 313480
       1165 313483 313483 313483 313483
       1166 313490 313490 313490 313490
       1167 313500 313500 313500 313500
       1168 313502 313502 313502 313502
       1169 313504 313504 313504 313504
       1170 313508 313508 313508 313508
       1171 313509 313509 313509 313509
       1172 313510 313510 313510 313510
       1173 313515 313515 313515 313515
       1174 313516 313516 313516 313516
       1175 313519 313519 313519 313519
       1176 313525 313525 313525 313525
       1177 313535 313535 313535 313535
       1178 313537 313537 313537 313537
       1179 313539 313539 313539 313539
       1180 313543 313543 313543 313543
       1181 313544 313544 313544 313544
       1182 313545 313545 313545 313545
       1183 313549 313549 313549 313549
       1184 313550 313550 313550 313550
       1185 313553 313553 313553 313553
       1186 313559 313559 313559 313559
       1187 313568 313568 313568 313568
       1188 313570 313570 313570 313570
       1189 313572 313572 313572 313572
       1190 313576 313576 313576 313576
       1191 313577 313577 313577 313577
       1192 313578 313578 313578 313578
       1193 313580 313580 313580 313580
       1194 313583 313583 313583 313583
       1195 313584 313584 313584 313584
       1196 313587 313587 313587 313587
       1197 313593 313593 313593 313593
       1198 313602 313602 313602 313602
       1199 313604 313604 313604 313604
       1200 313606 313606 313606 313606
       1201 313610 313610 313610 313610
       1202 313611 313611 313611 313611
       1203 313612 313612 313612 313612
       1204 313614 313614 313614 313614
       1205 313617 313617 313617 313617
       1206 313618 313618 313618 313618
       1207 313627 313627 313627 313627
       1208 313629 313629 313629 313629
       1209 313639 313639 313639 313639
       1210 313641 313641 313641 313641
       1211 313643 313643 313643 313643
       1212 313647 313647 313647 313647
       1213 313648 313648 313648 313648
       1214 313649 313649 313649 313649
       1215 313651 313651 313651 313651
       1216 313654 313654 313654 313654
       1217 313655 313655 313655 313655
       1218 313662 313662 313662 313662
       1219 313665 313665 313665 313665
       1220 313674 313674 313674 313674
       1221 313676 313676 313676 313676
       1222 313678 313678 313678 313678
       1223 313682 313682 313682 313682
       1224 313683 313683 313683 313683
       1225 313685 313685 313685 313685
       1226 313688 313688 313688 313688
       1227 313689 313689 313689 313689
       1228 313696 313696 313696 313696
       1229 313705 313705 313705 313705
       1230 313707 313707 313707 313707
       1231 313709 313709 313709 313709
       1232 313714 313714 313714 313714
       1233 313715 313715 313715 313715
       1234 313717 313717 313717 313717
       1235 313720 313720 313720 313720
       1236 313729 313729 313729 313729
       1237 313736 313736 313736 313736
       1238 313738 313738 313738 313738
       1239 313740 313740 313740 313740
       1240 313742 313742 313742 313742
       1241 313747 313747 313747 313747
       1242 313748 313748 313748 313748
       1243 313750 313750 313750 313750
       1244 313754 313754 313754 313754
       1245 313761 313761 313761 313761
       1246 313764 313764 313764 313764
       1247 313772 313772 313772 313772
       1248 313774 313774 313774 313774
       1249 313776 313776 313776 313776
       1250 313778 313778 313778 313778
       1251 313782 313782 313782 313782
       1252 313783 313783 313783 313783
       1253 313785 313785 313785 313785
       1254 313789 313789 313789 313789
       1255 313798 313798 313798 313798
       1256 313806 313806 313806 313806
       1257 313809 313809 313809 313809
       1258 313810 313810 313810 313810
       1259 313811 313811 313811 313811
       1260 313816 313816 313816 313816
       1261 313817 313817 313817 313817
       1262 313819 313819 313819 313819
       1263 313823 313823 313823 313823
       1264 313832 313832 313832 313832
       1265 313833 313833 313833 313833
       1266 313841 313841 313841 313841
       1267 313843 313843 313843 313843
       1268 313845 313845 313845 313845
       1269 313847 313847 313847 313847
       1270 313852 313852 313852 313852
       1271 313853 313853 313853 313853
       1272 313855 313855 313855 313855
       1273 313859 313859 313859 313859
       1274 313866 313866 313866 313866
       1275 313875 313875 313875 313875
       1276 313876 313876 313876 313876
       1277 313879 313879 313879 313879
       1278 313881 313881 313881 313881
       1279 313886 313886 313886 313886
       1280 313887 313887 313887 313887
       1281 313889 313889 313889 313889
       1282 313901 313901 313901 313901
       1283 313909 313909 313909 313909
       1284 313910 313910 313910 313910
       1285 313911 313911 313911 313911
       1286 313914 313914 313914 313914
       1287 313919 313919 313919 313919
       1288 313920 313920 313920 313920
       1289 313922 313922 313922 313922
       1290 313928 313928 313928 313928
       1291 313933 313933 313933 313933
       1292 313941 313941 313941 313941
       1293 313942 313942 313942 313942
       1294 313943 313943 313943 313943
       1295 313945 313945 313945 313945
       1296 313947 313947 313947 313947
       1297 313952 313952 313952 313952
       1298 313953 313953 313953 313953
       1299 313955 313955 313955 313955
       1300 313961 313961 313961 313961
       1301 313967 313967 313967 313967
       1302 313975 313975 313975 313975
       1303 313976 313976 313976 313976
       1304 313977 313977 313977 313977
       1305 313978 313978 313978 313978
       1306 313981 313981 313981 313981
       1307 313986 313986 313986 313986
       1308 313987 313987 313987 313987
       1309 313989 313989 313989 313989
       1310 313995 313995 313995 313995
       1311 314001 314001 314001 314001
       1312 314009 314009 314009 314009
       1313 314010 314010 314010 314010
       1314 314011 314011 314011 314011
       1315 314012 314012 314012 314012
       1316 314013 314013 314013 314013
       1317 314015 314015 314015 314015
       1318 314020 314020 314020 314020
       1319 314021 314021 314021 314021
       1320 314023 314023 314023 314023
       1321 314029 314029 314029 314029
       1322 314035 314035 314035 314035
       1323 314043 314043 314043 314043
       1324 314044 314044 314044 314044
       1325 314045 314045 314045 314045
       1326 314046 314046 314046 314046
       1327 314047 314047 314047 314047
       1328 314049 314049 314049 314049
       1329 314054 314054 314054 314054
       1330 314055 314055 314055 314055
       1331 314057 314057 314057 314057
       1332 314063 314063 314063 314063
       1333 314068 314068 314068 314068
       1334 314070 314070 314070 314070
       1335 314078 314078 314078 314078
       1336 314079 314079 314079 314079
       1337 314080 314080 314080 314080
       1338 314081 314081 314081 314081
       1339 314082 314082 314082 314082
       1340 314084 314084 314084 314084
       1341 314089 314089 314089 314089
       1342 314090 314090 314090 314090
       1343 314092 314092 314092 314092
       1344 314098 314098 314098 314098
       1345 314103 314103 314103 314103
       1346 314104 314104 314104 314104
       1347 314112 314112 314112 314112
       1348 314113 314113 314113 314113
       1349 314114 314114 314114 314114
       1350 314115 314115 314115 314115
       1351 314116 314116 314116 314116
       1352 314122 314122 314122 314122
       1353 314123 314123 314123 314123
       1354 314125 314125 314125 314125
       1355 314131 314131 314131 314131
       1356 314136 314136 314136 314136
       1357 314144 314144 314144 314144
       1358 314145 314145 314145 314145
       1359 314146 314146 314146 314146
       1360 314147 314147 314147 314147
       1361 314148 314148 314148 314148
       1362 314155 314155 314155 314155
       1363 314156 314156 314156 314156
       1364 314164 314164 314164 314164
       1365 314177 314177 314177 314177
       1366 314178 314178 314178 314178
       1367 314179 314179 314179 314179
       1368 314180 314180 314180 314180
       1369 314181 314181 314181 314181
       1370 314188 314188 314188 314188
       1371 314196 314196 314196 314196
       1372 314209 314209 314209 314209
       1373 314210 314210 314210 314210
       1374 314211 314211 314211 314211
       1375 314212 314212 314212 314212
       1376 314213 314213 314213 314213
       1377 314221 314221 314221 314221
       1378 314229 314229 314229 314229
       1379 314235 314235 314235 314235
       1380 314243 314243 314243 314243
       1381 314244 314244 314244 314244
       1382 314245 314245 314245 314245
       1383 314246 314246 314246 314246
       1384 314247 314247 314247 314247
       1385 314254 314254 314254 314254
       1386 314262 314262 314262 314262
       1387 314277 314277 314277 314277
       1388 314278 314278 314278 314278
       1389 314279 314279 314279 314279
       1390 314280 314280 314280 314280
       1391 314288 314288 314288 314288
       1392 314296 314296 314296 314296
       1393 314309 314309 314309 314309
       1394 314310 314310 314310 314310
       1395 314311 314311 314311 314311
       1396 314312 314312 314312 314312
       1397 314320 314320 314320 314320
       1398 314328 314328 314328 314328
       1399 314334 314334 314334 314334
       1400 314341 314341 314341 314341
       1401 314344 314344 314344 314344
       1402 314345 314345 314345 314345
       1403 314346 314346 314346 314346
       1404 314347 314347 314347 314347
       1405 314355 314355 314355 314355
       1406 314363 314363 314363 314363
       1407 314377 314377 314377 314377
       1408 314378 314378 314378 314378
       1409 314379 314379 314379 314379
       1410 314380 314380 314380 314380
       1411 314388 314388 314388 314388
       1412 314396 314396 314396 314396
       1413 314401 314401 314401 314401
       1414 314404 314404 314404 314404
       1415 314411 314411 314411 314411
       1416 314412 314412 314412 314412
       1417 314413 314413 314413 314413
       1418 314421 314421 314421 314421
       1419 314429 314429 314429 314429
       1420 314436 314436 314436 314436
       1421 314444 314444 314444 314444
       1422 314445 314445 314445 314445
       1423 314446 314446 314446 314446
       1424 314454 314454 314454 314454
       1425 314470 314470 314470 314470
       1426 314478 314478 314478 314478
       1427 314479 314479 314479 314479
       1428 314480 314480 314480 314480
       1429 314487 314487 314487 314487
       1430 314502 314502 314502 314502
       1431 314510 314510 314510 314510
       1432 314511 314511 314511 314511
       1433 314519 314519 314519 314519
       1434 314534 314534 314534 314534
       1435 314542 314542 314542 314542
       1436 314544 314544 314544 314544
       1437 314552 314552 314552 314552
       1438 314567 314567 314567 314567
       1439 314575 314575 314575 314575
       1440 314577 314577 314577 314577
       1441 314585 314585 314585 314585
       1442 314600 314600 314600 314600
       1443 314608 314608 314608 314608
       1444 314610 314610 314610 314610
       1445 314618 314618 314618 314618
       1446 314631 314631 314631 314631
       1447 314634 314634 314634 314634
       1448 314642 314642 314642 314642
       1449 314644 314644 314644 314644
       1450 314652 314652 314652 314652
       1451 314667 314667 314667 314667
       1452 314675 314675 314675 314675
       1453 314677 314677 314677 314677
       1454 314701 314701 314701 314701
       1455 314707 314707 314707 314707
       1456 314709 314709 314709 314709
       1457 314729 314729 314729 314729
       1458 314730 314730 314730 314730
       1459 314733 314733 314733 314733
       1460 314734 314734 314734 314734
       1461 314735 314735 314735 314735
       1462 314741 314741 314741 314741
       1463 314743 314743 314743 314743
       1464 314768 314768 314768 314768
       1465 314769 314769 314769 314769
       1466 314770 314770 314770 314770
       1467 314776 314776 314776 314776
       1468 314778 314778 314778 314778
       1469 314799 314799 314799 314799
       1470 314800 314800 314800 314800
       1471 314803 314803 314803 314803
       1472 314804 314804 314804 314804
       1473 314805 314805 314805 314805
       1474 314811 314811 314811 314811
       1475 314813 314813 314813 314813
       1476 314834 314834 314834 314834
       1477 314835 314835 314835 314835
       1478 314839 314839 314839 314839
       1479 314840 314840 314840 314840
       1480 314841 314841 314841 314841
       1481 314847 314847 314847 314847
       1482 314849 314849 314849 314849
       1483 314873 314873 314873 314873
       1484 314875 314875 314875 314875
       1485 314876 314876 314876 314876
       1486 314882 314882 314882 314882
       1487 314884 314884 314884 314884
       1488 314910 314910 314910 314910
       1489 314911 314911 314911 314911
       1490 314912 314912 314912 314912
       1491 314917 314917 314917 314917
       1492 314919 314919 314919 314919
       1493 314941 314941 314941 314941
       1494 314945 314945 314945 314945
       1495 314947 314947 314947 314947
       1496 314949 314949 314949 314949
       1497 314953 314953 314953 314953
       1498 314955 314955 314955 314955
       1499 314979 314979 314979 314979
       1500 314981 314981 314981 314981
       1501 314982 314982 314982 314982
       1502 314987 314987 314987 314987
       1503 314989 314989 314989 314989
       1504 315010 315010 315010 315010
       1505 315011 315011 315011 315011
       1506 315014 315014 315014 315014
       1507 315017 315017 315017 315017
       1508 315021 315021 315021 315021
       1509 315023 315023 315023 315023
       1510 315044 315044 315044 315044
       1511 315045 315045 315045 315045
       1512 315048 315048 315048 315048
       1513 315052 315052 315052 315052
       1514 315054 315054 315054 315054
       1515 315056 315056 315056 315056
       1516 315058 315058 315058 315058
       1517 315084 315084 315084 315084
       1518 315088 315088 315088 315088
       1519 315090 315090 315090 315090
       1520 315092 315092 315092 315092
       1521 315094 315094 315094 315094
       1522 315115 315115 315115 315115
       1523 315118 315118 315118 315118
       1524 315120 315120 315120 315120
       1525 315122 315122 315122 315122
       1526 315124 315124 315124 315124
       1527 315127 315127 315127 315127
       1528 315152 315152 315152 315152
       1529 315155 315155 315155 315155
       1530 315157 315157 315157 315157
       1531 315159 315159 315159 315159
       1532 315161 315161 315161 315161
       1533 315165 315165 315165 315165
       1534 315192 315192 315192 315192
       1535 315196 315196 315196 315196
       1536 315198 315198 315198 315198
       1537 315202 315202 315202 315202
       1538 315221 315221 315221 315221
       1539 315225 315225 315225 315225
       1540 315229 315229 315229 315229
       1541 315231 315231 315231 315231
       1542 315258 315258 315258 315258
       1543 315260 315260 315260 315260
       1544 315261 315261 315261 315261
       1545 315264 315264 315264 315264
       1546 315268 315268 315268 315268
       1547 315270 315270 315270 315270
       1548 315297 315297 315297 315297
       1549 315301 315301 315301 315301
       1550 315305 315305 315305 315305
       1551 315307 315307 315307 315307
       1552 315332 315332 315332 315332
       1553 315337 315337 315337 315337
       1554 315341 315341 315341 315341
       1555 315343 315343 315343 315343
       1556 315346 315346 315346 315346
       1557 315368 315368 315368 315368
       1558 315369 315369 315369 315369
       1559 315374 315374 315374 315374
       1560 315378 315378 315378 315378
       1561 315380 315380 315380 315380
       1562 315383 315383 315383 315383
       1563 315404 315404 315404 315404
       1564 315407 315407 315407 315407
       1565 315411 315411 315411 315411
       1566 315413 315413 315413 315413
       1567 315416 315416 315416 315416
       1568 315429 315429 315429 315429
       1569 315437 315437 315437 315437
       1570 315442 315442 315442 315442
       1571 315446 315446 315446 315446
       1572 315448 315448 315448 315448
       1573 315451 315451 315451 315451
       1574 315463 315463 315463 315463
       1575 315472 315472 315472 315472
       1576 315475 315475 315475 315475
       1577 315479 315479 315479 315479
       1578 315481 315481 315481 315481
       1579 315484 315484 315484 315484
       1580 315497 315497 315497 315497
       1581 315506 315506 315506 315506
       1582 315507 315507 315507 315507
       1583 315510 315510 315510 315510
       1584 315511 315511 315511 315511
       1585 315517 315517 315517 315517
       1586 315520 315520 315520 315520
       1587 315531 315531 315531 315531
       1588 315533 315533 315533 315533
       1589 315546 315546 315546 315546
       1590 315547 315547 315547 315547
       1591 315552 315552 315552 315552
       1592 315555 315555 315555 315555
       1593 315566 315566 315566 315566
       1594 315568 315568 315568 315568
       1595 315579 315579 315579 315579
       1596 315581 315581 315581 315581
       1597 315582 315582 315582 315582
       1598 315588 315588 315588 315588
       1599 315591 315591 315591 315591
       1600 315601 315601 315601 315601
       1601 315603 315603 315603 315603
       1602 315612 315612 315612 315612
       1603 315614 315614 315614 315614
       1604 315617 315617 315617 315617
       1605 315620 315620 315620 315620
       1606 315626 315626 315626 315626
       1607 315637 315637 315637 315637
       1608 315639 315639 315639 315639
       1609 315652 315652 315652 315652
       1610 315653 315653 315653 315653
       1611 315656 315656 315656 315656
       1612 315661 315661 315661 315661
       1613 315672 315672 315672 315672
       1614 315674 315674 315674 315674
       1615 315685 315685 315685 315685
       1616 315689 315689 315689 315689
       1617 315690 315690 315690 315690
       1618 315692 315692 315692 315692
       1619 315699 315699 315699 315699
       1620 315709 315709 315709 315709
       1621 315711 315711 315711 315711
       1622 315720 315720 315720 315720
       1623 315721 315721 315721 315721
       1624 315723 315723 315723 315723
       1625 315724 315724 315724 315724
       1626 315726 315726 315726 315726
       1627 315733 315733 315733 315733
       1628 315744 315744 315744 315744
       1629 315746 315746 315746 315746
       1630 315758 315758 315758 315758
       1631 315759 315759 315759 315759
       1632 315761 315761 315761 315761
       1633 315767 315767 315767 315767
       1634 315778 315778 315778 315778
       1635 315780 315780 315780 315780
       1636 315790 315790 315790 315790
       1637 315793 315793 315793 315793
       1638 315796 315796 315796 315796
       1639 315797 315797 315797 315797
       1640 315799 315799 315799 315799
       1641 315804 315804 315804 315804
       1642 315806 315806 315806 315806
       1643 315817 315817 315817 315817
       1644 315819 315819 315819 315819
       1645 315828 315828 315828 315828
       1646 315830 315830 315830 315830
       1647 315832 315832 315832 315832
       1648 315836 315836 315836 315836
       1649 315839 315839 315839 315839
       1650 315850 315850 315850 315850
       1651 315852 315852 315852 315852
       1652 315864 315864 315864 315864
       1653 315865 315865 315865 315865
       1654 315867 315867 315867 315867
       1655 315871 315871 315871 315871
       1656 315878 315878 315878 315878
       1657 315884 315884 315884 315884
       1658 315886 315886 315886 315886
       1659 315895 315895 315895 315895
       1660 315898 315898 315898 315898
       1661 315899 315899 315899 315899
       1662 315901 315901 315901 315901
       1663 315906 315906 315906 315906
       1664 315913 315913 315913 315913
       1665 315919 315919 315919 315919
       1666 315921 315921 315921 315921
       1667 315925 315925 315925 315925
       1668 315934 315934 315934 315934
       1669 315935 315935 315935 315935
       1670 315937 315937 315937 315937
       1671 315942 315942 315942 315942
       1672 315954 315954 315954 315954
       1673 315956 315956 315956 315956
       1674 315960 315960 315960 315960
       1675 315966 315966 315966 315966
       1676 315967 315967 315967 315967
       1677 315969 315969 315969 315969
       1678 315976 315976 315976 315976
       1679 315987 315987 315987 315987
       1680 315989 315989 315989 315989
       1681 315993 315993 315993 315993
       1682 315999 315999 315999 315999
       1683 316000 316000 316000 316000
       1684 316002 316002 316002 316002
       1685 316007 316007 316007 316007
       1686 316020 316020 316020 316020
       1687 316026 316026 316026 316026
       1688 316031 316031 316031 316031
       1689 316032 316032 316032 316032
       1690 316033 316033 316033 316033
       1691 316034 316034 316034 316034
       1692 316036 316036 316036 316036
       1693 316038 316038 316038 316038
       1694 316043 316043 316043 316043
       1695 316056 316056 316056 316056
       1696 316062 316062 316062 316062
       1697 316069 316069 316069 316069
       1698 316070 316070 316070 316070
       1699 316072 316072 316072 316072
       1700 316077 316077 316077 316077
       1701 316090 316090 316090 316090
       1702 316096 316096 316096 316096
       1703 316103 316103 316103 316103
       1704 316106 316106 316106 316106
       1705 316107 316107 316107 316107
       1706 316109 316109 316109 316109
       1707 316114 316114 316114 316114
       1708 316127 316127 316127 316127
       1709 316133 316133 316133 316133
       1710 316141 316141 316141 316141
       1711 316143 316143 316143 316143
       1712 316145 316145 316145 316145
       1713 316150 316150 316150 316150
       1714 316163 316163 316163 316163
       1715 316169 316169 316169 316169
       1716 316179 316179 316179 316179
       1717 316180 316180 316180 316180
       1718 316182 316182 316182 316182
       1719 316187 316187 316187 316187
       1720 316199 316199 316199 316199
       1721 316205 316205 316205 316205
       1722 316213 316213 316213 316213
       1723 316215 316215 316215 316215
       1724 316217 316217 316217 316217
       1725 316222 316222 316222 316222
       1726 316235 316235 316235 316235
       1727 316241 316241 316241 316241
       1728 316251 316251 316251 316251
       1729 316252 316252 316252 316252
       1730 316254 316254 316254 316254
       1731 316259 316259 316259 316259
       1732 316272 316272 316272 316272
       1733 316278 316278 316278 316278
       1734 316286 316286 316286 316286
       1735 316287 316287 316287 316287
       1736 316288 316288 316288 316288
       1737 316293 316293 316293 316293
       1738 316306 316306 316306 316306
       1739 316312 316312 316312 316312
       1740 316315 316315 316315 316315
       1741 316319 316319 316319 316319
       1742 316320 316320 316320 316320
       1743 316323 316323 316323 316323
       1744 316324 316324 316324 316324
       1745 316325 316325 316325 316325
       1746 316338 316338 316338 316338
       1747 316344 316344 316344 316344
       1748 316350 316350 316350 316350
       1749 316353 316353 316353 316353
       1750 316356 316356 316356 316356
       1751 316357 316357 316357 316357
       1752 316358 316358 316358 316358
       1753 316371 316371 316371 316371
       1754 316377 316377 316377 316377
       1755 316383 316383 316383 316383
       1756 316386 316386 316386 316386
       1757 316389 316389 316389 316389
       1758 316390 316390 316390 316390
       1759 316391 316391 316391 316391
       1760 316403 316403 316403 316403
       1761 316409 316409 316409 316409
       1762 316415 316415 316415 316415
       1763 316418 316418 316418 316418
       1764 316425 316425 316425 316425
       1765 316426 316426 316426 316426
       1766 316427 316427 316427 316427
       1767 316445 316445 316445 316445
       1768 316451 316451 316451 316451
       1769 316454 316454 316454 316454
       1770 316456 316456 316456 316456
       1771 316460 316460 316460 316460
       1772 316461 316461 316461 316461
       1773 316462 316462 316462 316462
       1774 316481 316481 316481 316481
       1775 316487 316487 316487 316487
       1776 316490 316490 316490 316490
       1777 316492 316492 316492 316492
       1778 316493 316493 316493 316493
       1779 316496 316496 316496 316496
       1780 316497 316497 316497 316497
       1781 316514 316514 316514 316514
       1782 316520 316520 316520 316520
       1783 316523 316523 316523 316523
       1784 316526 316526 316526 316526
       1785 316527 316527 316527 316527
       1786 316529 316529 316529 316529
       1787 316534 316534 316534 316534
       1788 316535 316535 316535 316535
       1789 316537 316537 316537 316537
       1790 316555 316555 316555 316555
       1791 316561 316561 316561 316561
       1792 316564 316564 316564 316564
       1793 316569 316569 316569 316569
       1794 316571 316571 316571 316571
       1795 316572 316572 316572 316572
       1796 316590 316590 316590 316590
       1797 316596 316596 316596 316596
       1798 316599 316599 316599 316599
       1799 316605 316605 316605 316605
       1800 316607 316607 316607 316607
       1801 316608 316608 316608 316608
       1802 316625 316625 316625 316625
       1803 316631 316631 316631 316631
       1804 316634 316634 316634 316634
       1805 316636 316636 316636 316636
       1806 316637 316637 316637 316637
       1807 316638 316638 316638 316638
       1808 316639 316639 316639 316639
       1809 316641 316641 316641 316641
       1810 316659 316659 316659 316659
       1811 316665 316665 316665 316665
       1812 316668 316668 316668 316668
       1813 316671 316671 316671 316671
       1814 316674 316674 316674 316674
       1815 316677 316677 316677 316677
       1816 316678 316678 316678 316678
       1817 316679 316679 316679 316679
       1818 316697 316697 316697 316697
       1819 316703 316703 316703 316703
       1820 316706 316706 316706 316706
       1821 316708 316708 316708 316708
       1822 316709 316709 316709 316709
       1823 316710 316710 316710 316710
       1824 316712 316712 316712 316712
       1825 316713 316713 316713 316713
       1826 316720 316720 316720 316720
       1827 316731 316731 316731 316731
       1828 316737 316737 316737 316737
       1829 316740 316740 316740 316740
       1830 316742 316742 316742 316742
       1831 316743 316743 316743 316743
       1832 316752 316752 316752 316752
       1833 316763 316763 316763 316763
       1834 316769 316769 316769 316769
       1835 316772 316772 316772 316772
       1836 316774 316774 316774 316774
       1837 316777 316777 316777 316777
       1838 316778 316778 316778 316778
       1839 316787 316787 316787 316787
       1840 316798 316798 316798 316798
       1841 316804 316804 316804 316804
       1842 316807 316807 316807 316807
       1843 316809 316809 316809 316809
       1844 316810 316810 316810 316810
       1845 316811 316811 316811 316811
       1846 316812 316812 316812 316812
       1847 316813 316813 316813 316813
       1848 316814 316814 316814 316814
       1849 316823 316823 316823 316823
       1850 316833 316833 316833 316833
       1851 316839 316839 316839 316839
       1852 316842 316842 316842 316842
       1853 316844 316844 316844 316844
       1854 316845 316845 316845 316845
       1855 316854 316854 316854 316854
       1856 316859 316859 316859 316859
       1857 316865 316865 316865 316865
       1858 316871 316871 316871 316871
       1859 316874 316874 316874 316874
       1860 316878 316878 316878 316878
       1861 316887 316887 316887 316887
       1862 316892 316892 316892 316892
       1863 316898 316898 316898 316898
       1864 316904 316904 316904 316904
       1865 316907 316907 316907 316907
       1866 316910 316910 316910 316910
       1867 316914 316914 316914 316914
       1868 316923 316923 316923 316923
       1869 316928 316928 316928 316928
       1870 316934 316934 316934 316934
       1871 316940 316940 316940 316940
       1872 316943 316943 316943 316943
       1873 316947 316947 316947 316947
       1874 316950 316950 316950 316950
       1875 316959 316959 316959 316959
       1876 316964 316964 316964 316964
       1877 316970 316970 316970 316970
[...]
     number of failed shell  elements = 0
     number of failed tshell elements = 0
 f a i l e d   e l e m e n t   r e p o r t  time=  3.7247E-05
     number of failed solid  elements = 80
     number of failed beam   elements = 0
     number of failed shell  elements = 0
     number of failed tshell elements = 0
 f a i l e d   e l e m e n t   r e p o r t  time=  3.7499E-05
     number of failed solid  elements = 80
     number of failed beam   elements = 0
     number of failed shell  elements = 0
     number of failed tshell elements = 0
 f a i l e d   e l e m e n t   r e p o r t  time=  3.7525E-05
     number of failed solid  elements = 80
     number of failed beam   elements = 0
     number of failed shell  elements = 0
     number of failed tshell elements = 0
 Element deleted due to damage
     solid element 34271  failed at time  3.7794E-05
 f a i l e d   e l e m e n t   r e p o r t  time=  3.7794E-05
     number of failed solid  elements = 81
     number of failed beam   elements = 0
     number of failed shell  elements = 0
     number of failed tshell elements = 0
 Element deleted due to damage
      node  number 303418 deleted at time  3.8064E-05
      node  number 303419 deleted at time  3.8064E-05
      node  number 307565 deleted at time  3.8064E-05
      node  number 307564 deleted at time  3.8064E-05
      node  number 16739 deleted at time  3.8064E-05
      node  number 16760 deleted at time  3.8064E-05
      node  number 16763 deleted at time  3.8064E-05
      node  number 16740 deleted at time  3.8064E-05
     solid element 33516  failed at time  3.8064E-05
 f a i l e d   e l e m e n t   r e p o r t  time=  3.8064E-05
     number of failed solid  elements = 82
     number of failed beam   elements = 0
     number of failed shell  elements = 0
     number of failed tshell elements = 0
 f a i l e d   e l e m e n t   r e p o r t  time=  3.8136E-05
     number of failed solid  elements = 82
     number of failed beam   elements = 0
     number of failed shell  elements = 0
     number of failed tshell elements = 0
 f a i l e d   e l e m e n t   r e p o r t  time=  3.8276E-05
     number of failed solid  elements = 82
     number of failed beam   elements = 0
     number of failed shell  elements = 0
     number of failed tshell elements = 0
 f a i l e d   e l e m e n t   r e p o r t  time=  3.8521E-05
     number of failed solid  elements = 82
     number of failed beam   elements = 0
     number of failed shell  elements = 0
     number of failed tshell elements = 0
 f a i l e d   e l e m e n t   r e p o r t  time=  3.8904E-05
     number of failed solid  elements = 82
     number of failed beam   elements = 0
     number of failed shell  elements = 0
     number of failed tshell elements = 0
 f a i l e d   e l e m e n t   r e p o r t  time=  3.8928E-05
     number of failed solid  elements = 82
     number of failed beam   elements = 0
     number of failed shell  elements = 0
     number of failed tshell elements = 0
 Element deleted due to damage
      node  number 303645 deleted at time  3.9038E-05
      node  number 15408 deleted at time  3.9038E-05
     solid element 32521  failed at time  3.9038E-05
 f a i l e d   e l e m e n t   r e p o r t  time=  3.9038E-05
     number of failed solid  elements = 83
     number of failed beam   elements = 0
     number of failed shell  elements = 0
     number of failed tshell elements = 0
 Element deleted due to damage
     solid element 38378  failed at time  3.9104E-05
 f a i l e d   e l e m e n t   r e p o r t  time=  3.9104E-05
     number of failed solid  elements = 84
     number of failed beam   elements = 0
     number of failed shell  elements = 0
     number of failed tshell elements = 0
 f a i l e d   e l e m e n t   r e p o r t  time=  3.9287E-05
     number of failed solid  elements = 84
     number of failed beam   elements = 0
     number of failed shell  elements = 0
     number of failed tshell elements = 0
 f a i l e d   e l e m e n t   r e p o r t  time=  3.9396E-05
     number of failed solid  elements = 84
     number of failed beam   elements = 0
     number of failed shell  elements = 0
     number of failed tshell elements = 0
 f a i l e d   e l e m e n t   r e p o r t  time=  3.9468E-05
     number of failed solid  elements = 84
     number of failed beam   elements = 0
     number of failed shell  elements = 0
     number of failed tshell elements = 0
 f a i l e d   e l e m e n t   r e p o r t  time=  3.9576E-05
     number of failed solid  elements = 84
     number of failed beam   elements = 0
     number of failed shell  elements = 0
     number of failed tshell elements = 0
 f a i l e d   e l e m e n t   r e p o r t  time=  3.9710E-05
     number of failed solid  elements = 84
     number of failed beam   elements = 0
     number of failed shell  elements = 0
     number of failed tshell elements = 0
 Element deleted due to damage
     solid element 34237  failed at time  3.9779E-05
 f a i l e d   e l e m e n t   r e p o r t  time=  3.9779E-05
     number of failed solid  elements = 85
     number of failed beam   elements = 0
     number of failed shell  elements = 0
     number of failed tshell elements = 0
 Element deleted due to damage
      node  number 303305 deleted at time  3.9780E-05
      node  number 21299 deleted at time  3.9780E-05
     solid element 38410  failed at time  3.9780E-05
 f a i l e d   e l e m e n t   r e p o r t  time=  3.9780E-05
     number of failed solid  elements = 86
     number of failed beam   elements = 0
     number of failed shell  elements = 0
     number of failed tshell elements = 0
 f a i l e d   e l e m e n t   r e p o r t  time=  3.9873E-05
     number of failed solid  elements = 86
     number of failed beam   elements = 0
     number of failed shell  elements = 0
     number of failed tshell elements = 0
 f a i l e d   e l e m e n t   r e p o r t  time=  3.9985E-05
     number of failed solid  elements = 86
     number of failed beam   elements = 0
     number of failed shell  elements = 0
     number of failed tshell elements = 0
 f a i l e d   e l e m e n t   r e p o r t  time=  4.0140E-05
     number of failed solid  elements = 86
     number of failed beam   elements = 0
     number of failed shell  elements = 0
     number of failed tshell elements = 0
 Element deleted due to damage
      node  number 303304 deleted at time  4.0197E-05
      node  number 21283 deleted at time  4.0197E-05
     solid element 38345  failed at time  4.0197E-05
 f a i l e d   e l e m e n t   r e p o r t  time=  4.0197E-05
     number of failed solid  elements = 87
     number of failed beam   elements = 0
     number of failed shell  elements = 0
     number of failed tshell elements = 0
 Element deleted due to damage
     solid element 31679  failed at time  4.0775E-05
 f a i l e d   e l e m e n t   r e p o r t  time=  4.0775E-05
     number of failed solid  elements = 88
     number of failed beam   elements = 0
     number of failed shell  elements = 0
     number of failed tshell elements = 0
 Element deleted due to damage
      node  number 303384 deleted at time  4.0831E-05
      node  number 15112 deleted at time  4.0831E-05
     solid element 32326  failed at time  4.0831E-05
 f a i l e d   e l e m e n t   r e p o r t  time=  4.0831E-05
     number of failed solid  elements = 89
     number of failed beam   elements = 0
     number of failed shell  elements = 0
     number of failed tshell elements = 0
 Element deleted due to damage
     solid element 30814  failed at time  4.0907E-05
 f a i l e d   e l e m e n t   r e p o r t  time=  4.0907E-05
     number of failed solid  elements = 90
     number of failed beam   elements = 0
     number of failed shell  elements = 0
     number of failed tshell elements = 0
 f a i l e d   e l e m e n t   r e p o r t  time=  4.1077E-05
     number of failed solid  elements = 90
     number of failed beam   elements = 0
     number of failed shell  elements = 0
     number of failed tshell elements = 0
 Element deleted due to damage
     solid element 30583  failed at time  4.1262E-05
 f a i l e d   e l e m e n t   r e p o r t  time=  4.1262E-05
     number of failed solid  elements = 91
     number of failed beam   elements = 0
     number of failed shell  elements = 0
     number of failed tshell elements = 0
 Element deleted due to damage
     solid element 30631  failed at time  4.1386E-05
 f a i l e d   e l e m e n t   r e p o r t  time=  4.1386E-05
     number of failed solid  elements = 92
     number of failed beam   elements = 0
     number of failed shell  elements = 0
     number of failed tshell elements = 0
 Element deleted due to damage
     solid element 31084  failed at time  4.1442E-05
 f a i l e d   e l e m e n t   r e p o r t  time=  4.1442E-05
     number of failed solid  elements = 93
     number of failed beam   elements = 0
     number of failed shell  elements = 0
     number of failed tshell elements = 0
 f a i l e d   e l e m e n t   r e p o r t  time=  4.1903E-05
     number of failed solid  elements = 93
     number of failed beam   elements = 0
     number of failed shell  elements = 0
     number of failed tshell elements = 0
 f a i l e d   e l e m e n t   r e p o r t  time=  4.1948E-05
     number of failed solid  elements = 93
     number of failed beam   elements = 0
     number of failed shell  elements = 0
     number of failed tshell elements = 0
 Element deleted due to damage
     solid element 37179  failed at time  4.2174E-05
 f a i l e d   e l e m e n t   r e p o r t  time=  4.2174E-05
     number of failed solid  elements = 94
     number of failed beam   elements = 0
     number of failed shell  elements = 0
     number of failed tshell elements = 0
 f a i l e d   e l e m e n t   r e p o r t  time=  4.2221E-05
     number of failed solid  elements = 94
     number of failed beam   elements = 0
     number of failed shell  elements = 0
     number of failed tshell elements = 0
 Element deleted due to damage
     solid element 34943  failed at time  4.2834E-05
 f a i l e d   e l e m e n t   r e p o r t  time=  4.2834E-05
     number of failed solid  elements = 95
     number of failed beam   elements = 0
     number of failed shell  elements = 0
     number of failed tshell elements = 0
 Element deleted due to damage
     solid element 35881  failed at time  4.2899E-05
 f a i l e d   e l e m e n t   r e p o r t  time=  4.2899E-05
     number of failed solid  elements = 96
     number of failed beam   elements = 0
     number of failed shell  elements = 0
     number of failed tshell elements = 0
 f a i l e d   e l e m e n t   r e p o r t  time=  4.3144E-05
     number of failed solid  elements = 96
     number of failed beam   elements = 0
     number of failed shell  elements = 0
     number of failed tshell elements = 0
 Element deleted due to damage
      node  number 303413 deleted at time  4.4395E-05
      node  number 303414 deleted at time  4.4395E-05
      node  number 16531 deleted at time  4.4395E-05
      node  number 16571 deleted at time  4.4395E-05
     solid element 33347  failed at time  4.4395E-05
 f a i l e d   e l e m e n t   r e p o r t  time=  4.4395E-05
     number of failed solid  elements = 97
     number of failed beam   elements = 0
     number of failed shell  elements = 0
     number of failed tshell elements = 0
 f a i l e d   e l e m e n t   r e p o r t  time=  4.4508E-05
     number of failed solid  elements = 97
     number of failed beam   elements = 0
     number of failed shell  elements = 0
     number of failed tshell elements = 0
 Element deleted due to damage
     solid element 30444  failed at time  4.4990E-05
 f a i l e d   e l e m e n t   r e p o r t  time=  4.4990E-05
     number of failed solid  elements = 98
     number of failed beam   elements = 0
     number of failed shell  elements = 0
     number of failed tshell elements = 0
 f a i l e d   e l e m e n t   r e p o r t  time=  4.5418E-05
     number of failed solid  elements = 98
     number of failed beam   elements = 0
     number of failed shell  elements = 0
     number of failed tshell elements = 0
 Element deleted due to damage
     solid element 31758  failed at time  4.7640E-05
 f a i l e d   e l e m e n t   r e p o r t  time=  4.7640E-05
     number of failed solid  elements = 99
     number of failed beam   elements = 0
     number of failed shell  elements = 0
     number of failed tshell elements = 0
 f a i l e d   e l e m e n t   r e p o r t  time=  4.8413E-05
     number of failed solid  elements = 99
     number of failed beam   elements = 0
     number of failed shell  elements = 0
     number of failed tshell elements = 0
 Element deleted due to damage
     solid element 32087  failed at time  5.4316E-05
 f a i l e d   e l e m e n t   r e p o r t  time=  5.4316E-05
     number of failed solid  elements = 100
     number of failed beam   elements = 0
     number of failed shell  elements = 0
     number of failed tshell elements = 0

 S t o r a g e   a l l o c a t i o n   

 Memory required to complete solution   :     254K
 Additional dynamically allocated memory:      28M
                                   Total:      28M


 P r o c e s s o r   #         1

 T i m i n g   i n f o r m a t i o n
                        CPU(seconds)   %CPU  Clock(seconds) %Clock
  ----------------------------------------------------------------
  Keyword Processing ... 3.7416E-01    0.14     3.7887E-01    0.14
  MPP Decomposition .... 6.2202E-01    0.23     6.9938E-01    0.26
    Init Proc .......... 5.0409E-01    0.19     5.0639E-01    0.19
    Decomposition ...... 3.8146E-02    0.01     4.0976E-02    0.02
    Translation ........ 7.9700E-02    0.03     1.5193E-01    0.06
  Initialization ....... 1.5654E-01    0.06     2.5912E-01    0.10
    Init Proc Phase 1 .. 9.7612E-02    0.04     1.2130E-01    0.05
    Init Proc Phase 2 .. 1.2334E-02    0.00     3.8171E-02    0.01
  Init solver .......... 2.5250E-03    0.00     6.7030E-03    0.00
  Element processing ... 1.5546E+02   58.71     1.5630E+02   58.63
    Solids ............. 1.4980E+02   56.57     1.5054E+02   56.47
    E Other ............ 1.8205E-01    0.07     1.8277E-01    0.07
  Binary databases ..... 4.9345E-01    0.19     5.1631E-01    0.19
  ASCII database ....... 2.2621E+00    0.85     2.2817E+00    0.86
  Contact algorithm .... 5.1774E+01   19.55     5.2056E+01   19.53
    Interf. ID         3 1.2866E+01    4.86     1.2940E+01    4.85
    Interf. ID         2 3.3235E+01   12.55     3.3403E+01   12.53
  Rigid Bodies ......... 3.3053E-01    0.12     3.3487E-01    0.13
  DEM .................. 1.4731E+01    5.56     1.4801E+01    5.55
    DEM self contact ... 1.4161E+01    5.35     1.4230E+01    5.34
  Time step size ....... 2.4100E+00    0.91     2.4246E+00    0.91
  Group force file ..... 5.2876E-02    0.02     6.2164E-02    0.02
  Others ............... 3.6491E+00    1.38     3.7174E+00    1.39
    Force Sharing ...... 3.0904E+00    1.17     3.1013E+00    1.16
  Misc. 1 .............. 1.9493E+01    7.36     1.9608E+01    7.36
    Scale Masses ....... 2.8088E-02    0.01     2.8518E-02    0.01
    Force Constraints .. 4.7910E-02    0.02     4.8507E-02    0.02
    Force to Accel ..... 1.8688E+00    0.71     1.8720E+00    0.70
    Constraint Sharing . 4.1272E-02    0.02     4.1860E-02    0.02
    Update RB nodes .... 5.4996E-02    0.02     5.8997E-02    0.02
  Misc. 2 .............. 3.5420E+00    1.34     3.5590E+00    1.34
  Misc. 3 .............. 8.3258E+00    3.14     8.4323E+00    3.16
  Misc. 4 .............. 1.1223E+00    0.42     1.1388E+00    0.43
    Timestep Init ...... 6.6397E-01    0.25     6.6610E-01    0.25
    Apply Loads ........ 3.7056E-01    0.14     3.7999E-01    0.14
  ----------------------------------------------------------------
  T o t a l s            2.6481E+02  100.00     2.6657E+02  100.00


 A v e r a g e s

 T i m i n g   i n f o r m a t i o n
                        CPU(seconds)   %CPU  Clock(seconds) %Clock
  ----------------------------------------------------------------
  Keyword Processing ... 3.2976E-01    0.13     3.7897E-01    0.14
    KW Reading ......... 1.7418E-02    0.01     2.5754E-02    0.01
    KW Writing ......... 1.0975E-02    0.00     2.3861E-02    0.01
  MPP Decomposition .... 5.6853E-01    0.22     7.0005E-01    0.26
    Init Proc .......... 4.4849E-01    0.17     5.0639E-01    0.19
    Decomposition ...... 3.2406E-02    0.01     4.0831E-02    0.02
    Translation ........ 8.7553E-02    0.03     1.5275E-01    0.06
  Initialization ....... 1.4815E-01    0.06     2.5963E-01    0.10
    Init Proc Phase 1 .. 9.7087E-02    0.04     1.2113E-01    0.05
    Init Proc Phase 2 .. 1.2040E-02    0.00     3.8188E-02    0.01
  Init solver .......... 1.9152E-03    0.00     5.4310E-03    0.00
  Element processing ... 1.0998E+02   41.77     1.1056E+02   41.48
    Solids ............. 1.0570E+02   40.14     1.0623E+02   39.85
    E Other ............ 1.1511E-01    0.04     1.1551E-01    0.04
  Binary databases ..... 4.5580E-01    0.17     4.8110E-01    0.18
  ASCII database ....... 2.4174E+00    0.92     3.8962E+00    1.46
  Contact algorithm .... 5.2359E+01   19.88     5.2632E+01   19.74
    Interf. ID         3 1.3663E+01    5.19     1.3739E+01    5.15
    Interf. ID         2 3.1582E+01   11.99     3.1737E+01   11.91
  Rigid Bodies ......... 1.8923E-01    0.07     1.9276E-01    0.07
  DEM .................. 1.6211E+01    6.16     1.6284E+01    6.11
    DEM self contact ... 1.5740E+01    5.98     1.5813E+01    5.93
  Time step size ....... 4.8129E+01   18.28     4.8337E+01   18.13
  Group force file ..... 4.2575E-02    0.02     5.1534E-02    0.02
  Others ............... 3.0546E+00    1.16     3.1103E+00    1.17
    Force Sharing ...... 2.7044E+00    1.03     2.7148E+00    1.02
  Misc. 1 .............. 1.8001E+01    6.84     1.8112E+01    6.79
    Scale Masses ....... 1.9621E-02    0.01     1.9828E-02    0.01
    Force Constraints .. 2.8844E-02    0.01     2.9054E-02    0.01
    Force to Accel ..... 1.6809E+00    0.64     1.6835E+00    0.63
    Constraint Sharing . 3.1554E-02    0.01     3.1843E-02    0.01
    Update RB nodes .... 3.5595E-02    0.01     3.8375E-02    0.01
  Misc. 2 .............. 3.4083E+00    1.29     3.4240E+00    1.28
  Misc. 3 .............. 7.0440E+00    2.68     7.1464E+00    2.68
  Misc. 4 .............. 9.8101E-01    0.37     9.9729E-01    0.37
    Timestep Init ...... 6.9994E-01    0.27     7.0209E-01    0.26
    Apply Loads ........ 2.2425E-01    0.09     2.3332E-01    0.09
  ----------------------------------------------------------------
  T o t a l s            2.6332E+02  100.00     2.6657E+02  100.00

 Problem time       =    6.0000E-05
 Problem cycle      =     49331
 Total CPU time     =       263 seconds (   0 hours  4 minutes 23 seconds)
 CPU time per zone cycle  =        504.218 nanoseconds
 Clock time per zone cycle=        510.120 nanoseconds

 Parallel execution with      4 MPP proc
 NLQ used/max                64/    64

  C P U   T i m i n g   i n f o r m a t i o n

  Processor   Hostname                              CPU/Avg_CPU  CPU(seconds)
  ---------------------------------------------------------------------------
  #       0   compute-0-0                               0.98205   2.5865E+02
  #       1   compute-0-0                               1.00567   2.6487E+02
  #       2   compute-0-0                               1.00612   2.6499E+02
  #       3   compute-0-0                               1.00616   2.6500E+02
  ---------------------------------------------------------------------------
  T o t a l s                                                     1.0535E+03


 Start time   04/08/2022 11:26:22  
 End time     04/08/2022 11:30:48  
 Elapsed time     266 seconds for   49331 cycles using     4 MPP procs
             (      0 hour   4 minutes 26 seconds)

 N o r m a l    t e r m i n a t i o n                          04/08/22 11:30:48
