      Date: 04/08/2022      Time: 11:26:22  

     ___________________________________________________
     |                                                 |
     |  Livermore Software Technology, LLC             |
     |                                                 |
     |  7374 Las Positas Road                          |
     |  Livermore, CA 94551                            |
     |  Tel: (925) 449-2500  Fax: (925) 449-2507       |
     |  www.lstc.com                                   |
     |_________________________________________________|
     |                                                 |
     |  LS-DYNA, A Program for Nonlinear Dynamic       |
     |  Analysis of Structures in Three Dimensions     |
     |  Version : mpp d R12.0.0   Date: 06/19/2020     |
     |  Revision: 148931          Time: 17:26:40       |
     |                                                 |
     |  Features enabled in this version:              |
     |    Distributed Memory Parallel                  |
     |    CESE CHEMISTRY EM ICFD STOCHASTIC_PARTICLES  |
     |    FFTW (multi-dimensional FFTW Library)        |
     |    ANSYS License (ANSYS202)                     |
     |    BigID  option                                |
     |                                                 |
     |  Licensed to:                                   |
     |  Issued by  : Pascale.SaneGuttin_02092022       |
     |                                                 |
     |  Platform   : Intel-MPI 2018 Xeon64             |
     |  OS Level   : Linux CentOS 6.5 uom              |
     |  Compiler   : Intel Fortran Compiler 16.0 AVX-2 |
     |  Hostname   : compute-0-0                       |
     |  Precision  : Double precision (I8R8)           |
     |  SVN Version: 148978                            |
     |                                                 |
     |  Unauthorized use infringes LST copyrights      |
     |_________________________________________________|


 Input file: DynaOpt.key                                                                     

 The native file format       : 64-bit small endian

 LS-DYNA will perform a structural only analysis 

 allocating  memory to   100000000 d     1985258 hex ownership chunk
 contracting memory to           7 d     1990528 material sort chunk
 expanding   memory to          12 d     2051099 nodal force sharing lists 1
 expanding   memory to          18 d     2033317 mat scratch
 expanding   memory to          19 d     3099392 tied nodes scratch
 expanding   memory to          22 d     3099392 tied node scratch
 contracting memory to          18 d     3099392 nodal rigid body scratch
 expanding   memory to        1298 d     3099392 DES sld2des scratch
 expanding   memory to       17386 d     3099392 DES sld2des scratch
 contracting memory to        2450 d     3099392 DES sld2des scratch
 contracting memory to          18 d     3099392 spring/damper scratch
 contracting memory to           1 d     2090283 Performing Decomposition -- Phase 3
 LS-DYNA keyword deck by LS-PrePost                                      
                         ls-dyna mpp.148931 d           date 06/19/2020
 expanding   memory to        4305 d     2090283 material, node and element data
 expanding   memory to        4399 d     2090302 mat add general damage 0
 expanding   memory to        4459 d     2090302 material added airbag porosity leakage 
 expanding   memory to        4477 d     2090302 material properties
 expanding   memory to        4495 d     2126892 element data for composite material
 expanding   memory to        4510 d     2439719 gradient of damage data
 expanding   memory to       16624 d     2479253 user control for contact interfaces
 contracting memory to       16610 d     2479253 thermal expansion 0
 expanding   memory to       16616 d     2479253 state of charge expansion 0
 expanding   memory to       16618 d     2479253 cross-sectional force definitions 0
 expanding   memory to       25811 d     2479289 temp index array for node sorting
 contracting memory to       16618 d     2479289 just because?
 expanding   memory to       19253 d     2497693 arbitrary element numbering input
 contracting memory to       16638 d    24923894 spc cards
 contracting memory to       16625 d    24923894 d3thdt storage
 expanding   memory to       16626 d    25004836 process element material data
 expanding   memory to       18627 d    25004830 load curve data
 contracting memory to       16633 d    25004830 user_define_loading_set
 expanding   memory to       16833 d    25004830 regularize time history data
 contracting memory to       16637 d    25004830 *DEFINE_ELEMENT_DEATH
 expanding   memory to       16892 d    24987136 contact interfaces
 expanding   memory to       36278 d    24987136 implicit contact 1
 expanding   memory to       57346 d    24987136 implicit contact 2
 contracting memory to       17892 d    25232497 contact segment data 1
 expanding   memory to       66551 d    25464964 contact segment data 3
 expanding   memory to      150871 d    25348975 read contacts, eroding check
 expanding   memory to      232563 d    25348975 eroding neighbors 2
 expanding   memory to      251009 d    25348975 eroding neighbors
 contracting memory to      103443 d    25766561 contact definition
 expanding   memory to      103449 d    25904516 contact history
 expanding   memory to      103503 d    25980519 rigid body
 expanding   memory to      103521 d    25981133 rbe2 scratch
 contracting memory to      103507 d    26039109 contact friction
 expanding   memory to      103597 d    26039115 joints
 expanding   memory to      105657 d    26039115 de sld2des
 expanding   memory to      105697 d    26047020 discrete elements regions
 expanding   memory to      105797 d    26236632 rigid bodies for disp. termination
 
 *** Warning 40859 (SOL+859)
     Cannot find elements of slave segment of interface 2
 deleted segment ID          n1          n2          n3          n4
       1 310642 310642 310642 310642
       2 310643 310643 310643 310643
       3 310649 310649 310649 310649
       4 310651 310651 310651 310651
       5 310664 310664 310664 310664
       6 310665 310665 310665 310665
       7 310666 310666 310666 310666
       8 310673 310673 310673 310673
       9 310674 310674 310674 310674
       10 310680 310680 310680 310680
       11 310682 310682 310682 310682
       12 310696 310696 310696 310696
       13 310697 310697 310697 310697
       14 310698 310698 310698 310698
       15 310702 310702 310702 310702
       16 310707 310707 310707 310707
       17 310708 310708 310708 310708
       18 310715 310715 310715 310715
       19 310716 310716 310716 310716
       20 310730 310730 310730 310730
       21 310731 310731 310731 310731
       22 310732 310732 310732 310732
       23 310736 310736 310736 310736
       24 310737 310737 310737 310737
       25 310740 310740 310740 310740
       26 310741 310741 310741 310741
       27 310748 310748 310748 310748
       28 310763 310763 310763 310763
       29 310764 310764 310764 310764
       30 310765 310765 310765 310765
       31 310772 310772 310772 310772
       32 310773 310773 310773 310773
       33 310780 310780 310780 310780
       34 310795 310795 310795 310795
       35 310796 310796 310796 310796
       36 310797 310797 310797 310797
       37 310801 310801 310801 310801
       38 310807 310807 310807 310807
       39 310808 310808 310808 310808
       40 310815 310815 310815 310815
       41 310830 310830 310830 310830
       42 310831 310831 310831 310831
       43 310836 310836 310836 310836
       44 310837 310837 310837 310837
       45 310841 310841 310841 310841
       46 310848 310848 310848 310848
       47 310863 310863 310863 310863
       48 310864 310864 310864 310864
       49 310869 310869 310869 310869
       50 310873 310873 310873 310873
       51 310874 310874 310874 310874
       52 310881 310881 310881 310881
       53 310896 310896 310896 310896
       54 310897 310897 310897 310897
       55 310902 310902 310902 310902
       56 310907 310907 310907 310907
       57 310908 310908 310908 310908
       58 310915 310915 310915 310915
       59 310930 310930 310930 310930
       60 310931 310931 310931 310931
       61 310936 310936 310936 310936
       62 310940 310940 310940 310940
       63 310941 310941 310941 310941
       64 310948 310948 310948 310948
       65 310963 310963 310963 310963
       66 310964 310964 310964 310964
       67 310969 310969 310969 310969
       68 310973 310973 310973 310973
       69 310974 310974 310974 310974
       70 310980 310980 310980 310980
       71 310995 310995 310995 310995
       72 310996 310996 310996 310996
       73 311001 311001 311001 311001
       74 311005 311005 311005 311005
       75 311006 311006 311006 311006
       76 311013 311013 311013 311013
       77 311028 311028 311028 311028
       78 311029 311029 311029 311029
       79 311034 311034 311034 311034
       80 311039 311039 311039 311039
       81 311040 311040 311040 311040
       82 311047 311047 311047 311047
       83 311062 311062 311062 311062
       84 311063 311063 311063 311063
       85 311068 311068 311068 311068
       86 311072 311072 311072 311072
       87 311075 311075 311075 311075
       88 311079 311079 311079 311079
       89 311094 311094 311094 311094
       90 311095 311095 311095 311095
       91 311100 311100 311100 311100
       92 311102 311102 311102 311102
       93 311106 311106 311106 311106
       94 311107 311107 311107 311107
       95 311114 311114 311114 311114
       96 311128 311128 311128 311128
       97 311129 311129 311129 311129
       98 311134 311134 311134 311134
       99 311138 311138 311138 311138
       100 311139 311139 311139 311139
       101 311146 311146 311146 311146
       102 311161 311161 311161 311161
       103 311162 311162 311162 311162
       104 311167 311167 311167 311167
       105 311172 311172 311172 311172
       106 311173 311173 311173 311173
       107 311179 311179 311179 311179
       108 311194 311194 311194 311194
       109 311195 311195 311195 311195
       110 311200 311200 311200 311200
       111 311201 311201 311201 311201
       112 311205 311205 311205 311205
       113 311206 311206 311206 311206
       114 311213 311213 311213 311213
       115 311228 311228 311228 311228
       116 311229 311229 311229 311229
       117 311234 311234 311234 311234
       118 311238 311238 311238 311238
       119 311239 311239 311239 311239
       120 311246 311246 311246 311246
       121 311261 311261 311261 311261
       122 311262 311262 311262 311262
       123 311267 311267 311267 311267
       124 311277 311277 311277 311277
       125 311291 311291 311291 311291
       126 311292 311292 311292 311292
       127 311297 311297 311297 311297
       128 311309 311309 311309 311309
       129 311310 311310 311310 311310
       130 311324 311324 311324 311324
       131 311325 311325 311325 311325
       132 311330 311330 311330 311330
       133 311344 311344 311344 311344
       134 311345 311345 311345 311345
       135 311359 311359 311359 311359
       136 311360 311360 311360 311360
       137 311365 311365 311365 311365
       138 311377 311377 311377 311377
       139 311378 311378 311378 311378
       140 311392 311392 311392 311392
       141 311393 311393 311393 311393
       142 311398 311398 311398 311398
       143 311399 311399 311399 311399
       144 311412 311412 311412 311412
       145 311413 311413 311413 311413
       146 311427 311427 311427 311427
       147 311428 311428 311428 311428
       148 311432 311432 311432 311432
       149 311433 311433 311433 311433
       150 311434 311434 311434 311434
       151 311435 311435 311435 311435
       152 311448 311448 311448 311448
       153 311449 311449 311449 311449
       154 311463 311463 311463 311463
       155 311464 311464 311464 311464
       156 311469 311469 311469 311469
       157 311482 311482 311482 311482
       158 311483 311483 311483 311483
       159 311497 311497 311497 311497
       160 311498 311498 311498 311498
       161 311502 311502 311502 311502
       162 311514 311514 311514 311514
       163 311515 311515 311515 311515
       164 311529 311529 311529 311529
       165 311530 311530 311530 311530
       166 311534 311534 311534 311534
       167 311547 311547 311547 311547
       168 311548 311548 311548 311548
       169 311563 311563 311563 311563
       170 311565 311565 311565 311565
       171 311568 311568 311568 311568
       172 311569 311569 311569 311569
       173 311570 311570 311570 311570
       174 311572 311572 311572 311572
       175 311583 311583 311583 311583
       176 311584 311584 311584 311584
       177 311598 311598 311598 311598
       178 311599 311599 311599 311599
       179 311603 311603 311603 311603
       180 311615 311615 311615 311615
       181 311616 311616 311616 311616
       182 311630 311630 311630 311630
       183 311631 311631 311631 311631
       184 311636 311636 311636 311636
       185 311638 311638 311638 311638
       186 311650 311650 311650 311650
       187 311651 311651 311651 311651
       188 311665 311665 311665 311665
       189 311666 311666 311666 311666
       190 311671 311671 311671 311671
       191 311674 311674 311674 311674
       192 311683 311683 311683 311683
       193 311684 311684 311684 311684
       194 311698 311698 311698 311698
       195 311699 311699 311699 311699
       196 311704 311704 311704 311704
       197 311711 311711 311711 311711
       198 311715 311715 311715 311715
       199 311716 311716 311716 311716
       200 311730 311730 311730 311730
       201 311731 311731 311731 311731
       202 311736 311736 311736 311736
       203 311744 311744 311744 311744
       204 311748 311748 311748 311748
       205 311749 311749 311749 311749
       206 311763 311763 311763 311763
       207 311764 311764 311764 311764
       208 311769 311769 311769 311769
       209 311780 311780 311780 311780
       210 311783 311783 311783 311783
       211 311784 311784 311784 311784
       212 311798 311798 311798 311798
       213 311799 311799 311799 311799
       214 311804 311804 311804 311804
       215 311812 311812 311812 311812
       216 311816 311816 311816 311816
       217 311817 311817 311817 311817
       218 311831 311831 311831 311831
       219 311832 311832 311832 311832
       220 311833 311833 311833 311833
       221 311837 311837 311837 311837
       222 311848 311848 311848 311848
       223 311852 311852 311852 311852
       224 311853 311853 311853 311853
       225 311867 311867 311867 311867
       226 311868 311868 311868 311868
       227 311869 311869 311869 311869
       228 311873 311873 311873 311873
       229 311882 311882 311882 311882
       230 311886 311886 311886 311886
       231 311899 311899 311899 311899
       232 311900 311900 311900 311900
       233 311901 311901 311901 311901
       234 311905 311905 311905 311905
       235 311914 311914 311914 311914
       236 311918 311918 311918 311918
       237 311919 311919 311919 311919
       238 311930 311930 311930 311930
       239 311933 311933 311933 311933
       240 311934 311934 311934 311934
       241 311935 311935 311935 311935
       242 311939 311939 311939 311939
       243 311946 311946 311946 311946
       244 311950 311950 311950 311950
       245 311951 311951 311951 311951
       246 311962 311962 311962 311962
       247 311965 311965 311965 311965
       248 311966 311966 311966 311966
       249 311967 311967 311967 311967
       250 311971 311971 311971 311971
       251 311974 311974 311974 311974
       252 311979 311979 311979 311979
       253 311981 311981 311981 311981
       254 311984 311984 311984 311984
       255 311995 311995 311995 311995
       256 311998 311998 311998 311998
       257 311999 311999 311999 311999
       258 312000 312000 312000 312000
       259 312004 312004 312004 312004
       260 312005 312005 312005 312005
       261 312011 312011 312011 312011
       262 312014 312014 312014 312014
       263 312018 312018 312018 312018
       264 312019 312019 312019 312019
       265 312030 312030 312030 312030
       266 312033 312033 312033 312033
       267 312034 312034 312034 312034
       268 312035 312035 312035 312035
       269 312039 312039 312039 312039
       270 312043 312043 312043 312043
       271 312048 312048 312048 312048
       272 312052 312052 312052 312052
       273 312054 312054 312054 312054
       274 312064 312064 312064 312064
       275 312067 312067 312067 312067
       276 312068 312068 312068 312068
       277 312072 312072 312072 312072
       278 312077 312077 312077 312077
       279 312082 312082 312082 312082
       280 312086 312086 312086 312086
       281 312088 312088 312088 312088
       282 312098 312098 312098 312098
       283 312102 312102 312102 312102
       284 312103 312103 312103 312103
       285 312107 312107 312107 312107
       286 312110 312110 312110 312110
       287 312115 312115 312115 312115
       288 312119 312119 312119 312119
       289 312121 312121 312121 312121
       290 312131 312131 312131 312131
       291 312135 312135 312135 312135
       292 312136 312136 312136 312136
       293 312140 312140 312140 312140
       294 312143 312143 312143 312143
       295 312148 312148 312148 312148
       296 312152 312152 312152 312152
       297 312154 312154 312154 312154
       298 312164 312164 312164 312164
       299 312168 312168 312168 312168
       300 312169 312169 312169 312169
       301 312173 312173 312173 312173
       302 312178 312178 312178 312178
       303 312183 312183 312183 312183
       304 312187 312187 312187 312187
       305 312189 312189 312189 312189
       306 312199 312199 312199 312199
       307 312203 312203 312203 312203
       308 312204 312204 312204 312204
       309 312208 312208 312208 312208
       310 312212 312212 312212 312212
       311 312217 312217 312217 312217
       312 312221 312221 312221 312221
       313 312223 312223 312223 312223
       314 312233 312233 312233 312233
       315 312237 312237 312237 312237
       316 312238 312238 312238 312238
       317 312242 312242 312242 312242
       318 312246 312246 312246 312246
       319 312251 312251 312251 312251
       320 312255 312255 312255 312255
       321 312257 312257 312257 312257
       322 312267 312267 312267 312267
       323 312271 312271 312271 312271
       324 312272 312272 312272 312272
       325 312276 312276 312276 312276
       326 312282 312282 312282 312282
       327 312286 312286 312286 312286
       328 312288 312288 312288 312288
       329 312290 312290 312290 312290
       330 312292 312292 312292 312292
       331 312302 312302 312302 312302
       332 312306 312306 312306 312306
       333 312307 312307 312307 312307
       334 312311 312311 312311 312311
       335 312313 312313 312313 312313
       336 312316 312316 312316 312316
       337 312321 312321 312321 312321
       338 312325 312325 312325 312325
       339 312327 312327 312327 312327
       340 312337 312337 312337 312337
       341 312341 312341 312341 312341
       342 312342 312342 312342 312342
       343 312346 312346 312346 312346
       344 312349 312349 312349 312349
       345 312354 312354 312354 312354
       346 312358 312358 312358 312358
       347 312360 312360 312360 312360
       348 312370 312370 312370 312370
       349 312374 312374 312374 312374
       350 312375 312375 312375 312375
       351 312378 312378 312378 312378
       352 312381 312381 312381 312381
       353 312386 312386 312386 312386
       354 312389 312389 312389 312389
       355 312391 312391 312391 312391
       356 312401 312401 312401 312401
       357 312405 312405 312405 312405
       358 312406 312406 312406 312406
       359 312410 312410 312410 312410
       360 312413 312413 312413 312413
       361 312418 312418 312418 312418
       362 312419 312419 312419 312419
       363 312422 312422 312422 312422
       364 312424 312424 312424 312424
       365 312434 312434 312434 312434
       366 312438 312438 312438 312438
       367 312439 312439 312439 312439
       368 312442 312442 312442 312442
       369 312446 312446 312446 312446
       370 312451 312451 312451 312451
       371 312452 312452 312452 312452
       372 312455 312455 312455 312455
       373 312457 312457 312457 312457
       374 312467 312467 312467 312467
       375 312471 312471 312471 312471
       376 312472 312472 312472 312472
       377 312475 312475 312475 312475
       378 312478 312478 312478 312478
       379 312483 312483 312483 312483
       380 312484 312484 312484 312484
       381 312486 312486 312486 312486
       382 312488 312488 312488 312488
       383 312498 312498 312498 312498
       384 312502 312502 312502 312502
       385 312506 312506 312506 312506
       386 312507 312507 312507 312507
       387 312509 312509 312509 312509
       388 312513 312513 312513 312513
       389 312518 312518 312518 312518
       390 312519 312519 312519 312519
       391 312522 312522 312522 312522
       392 312524 312524 312524 312524
       393 312534 312534 312534 312534
       394 312538 312538 312538 312538
       395 312539 312539 312539 312539
       396 312542 312542 312542 312542
       397 312547 312547 312547 312547
       398 312551 312551 312551 312551
       399 312552 312552 312552 312552
       400 312555 312555 312555 312555
       401 312557 312557 312557 312557
       402 312567 312567 312567 312567
       403 312571 312571 312571 312571
       404 312572 312572 312572 312572
       405 312576 312576 312576 312576
       406 312580 312580 312580 312580
       407 312585 312585 312585 312585
       408 312588 312588 312588 312588
       409 312590 312590 312590 312590
       410 312591 312591 312591 312591
       411 312601 312601 312601 312601
       412 312605 312605 312605 312605
       413 312606 312606 312606 312606
       414 312610 312610 312610 312610
       415 312615 312615 312615 312615
       416 312620 312620 312620 312620
       417 312621 312621 312621 312621
       418 312624 312624 312624 312624
       419 312626 312626 312626 312626
       420 312636 312636 312636 312636
       421 312640 312640 312640 312640
       422 312641 312641 312641 312641
       423 312645 312645 312645 312645
       424 312649 312649 312649 312649
       425 312654 312654 312654 312654
       426 312655 312655 312655 312655
       427 312658 312658 312658 312658
       428 312660 312660 312660 312660
       429 312669 312669 312669 312669
       430 312673 312673 312673 312673
       431 312674 312674 312674 312674
       432 312678 312678 312678 312678
       433 312683 312683 312683 312683
       434 312688 312688 312688 312688
       435 312689 312689 312689 312689
       436 312692 312692 312692 312692
       437 312694 312694 312694 312694
       438 312703 312703 312703 312703
       439 312707 312707 312707 312707
       440 312708 312708 312708 312708
       441 312712 312712 312712 312712
       442 312716 312716 312716 312716
       443 312721 312721 312721 312721
       444 312722 312722 312722 312722
       445 312725 312725 312725 312725
       446 312727 312727 312727 312727
       447 312736 312736 312736 312736
       448 312740 312740 312740 312740
       449 312741 312741 312741 312741
       450 312745 312745 312745 312745
       451 312746 312746 312746 312746
       452 312750 312750 312750 312750
       453 312755 312755 312755 312755
       454 312756 312756 312756 312756
       455 312759 312759 312759 312759
       456 312761 312761 312761 312761
       457 312771 312771 312771 312771
       458 312775 312775 312775 312775
       459 312776 312776 312776 312776
       460 312780 312780 312780 312780
       461 312783 312783 312783 312783
       462 312788 312788 312788 312788
       463 312789 312789 312789 312789
       464 312792 312792 312792 312792
       465 312794 312794 312794 312794
       466 312804 312804 312804 312804
       467 312808 312808 312808 312808
       468 312809 312809 312809 312809
       469 312813 312813 312813 312813
       470 312817 312817 312817 312817
       471 312822 312822 312822 312822
       472 312823 312823 312823 312823
       473 312826 312826 312826 312826
       474 312828 312828 312828 312828
       475 312838 312838 312838 312838
       476 312842 312842 312842 312842
       477 312843 312843 312843 312843
       478 312847 312847 312847 312847
       479 312850 312850 312850 312850
       480 312855 312855 312855 312855
       481 312856 312856 312856 312856
       482 312859 312859 312859 312859
       483 312861 312861 312861 312861
       484 312871 312871 312871 312871
       485 312875 312875 312875 312875
       486 312876 312876 312876 312876
       487 312880 312880 312880 312880
       488 312883 312883 312883 312883
       489 312887 312887 312887 312887
       490 312888 312888 312888 312888
       491 312891 312891 312891 312891
       492 312893 312893 312893 312893
       493 312903 312903 312903 312903
       494 312907 312907 312907 312907
       495 312908 312908 312908 312908
       496 312912 312912 312912 312912
       497 312915 312915 312915 312915
       498 312920 312920 312920 312920
       499 312921 312921 312921 312921
       500 312924 312924 312924 312924
       501 312926 312926 312926 312926
       502 312936 312936 312936 312936
       503 312940 312940 312940 312940
       504 312941 312941 312941 312941
       505 312945 312945 312945 312945
       506 312948 312948 312948 312948
       507 312953 312953 312953 312953
       508 312954 312954 312954 312954
       509 312957 312957 312957 312957
       510 312959 312959 312959 312959
       511 312969 312969 312969 312969
       512 312973 312973 312973 312973
       513 312974 312974 312974 312974
       514 312978 312978 312978 312978
       515 312982 312982 312982 312982
       516 312985 312985 312985 312985
       517 312988 312988 312988 312988
       518 312990 312990 312990 312990
       519 313000 313000 313000 313000
       520 313004 313004 313004 313004
       521 313005 313005 313005 313005
       522 313009 313009 313009 313009
       523 313010 313010 313010 313010
       524 313013 313013 313013 313013
       525 313018 313018 313018 313018
       526 313019 313019 313019 313019
       527 313022 313022 313022 313022
       528 313024 313024 313024 313024
       529 313034 313034 313034 313034
       530 313038 313038 313038 313038
       531 313039 313039 313039 313039
       532 313043 313043 313043 313043
       533 313046 313046 313046 313046
       534 313048 313048 313048 313048
       535 313051 313051 313051 313051
       536 313053 313053 313053 313053
       537 313056 313056 313056 313056
       538 313058 313058 313058 313058
       539 313068 313068 313068 313068
       540 313072 313072 313072 313072
       541 313073 313073 313073 313073
       542 313077 313077 313077 313077
       543 313079 313079 313079 313079
       544 313082 313082 313082 313082
       545 313084 313084 313084 313084
       546 313086 313086 313086 313086
       547 313088 313088 313088 313088
       548 313090 313090 313090 313090
       549 313099 313099 313099 313099
       550 313103 313103 313103 313103
       551 313104 313104 313104 313104
       552 313108 313108 313108 313108
       553 313113 313113 313113 313113
       554 313115 313115 313115 313115
       555 313118 313118 313118 313118
       556 313119 313119 313119 313119
       557 313122 313122 313122 313122
       558 313124 313124 313124 313124
       559 313127 313127 313127 313127
       560 313134 313134 313134 313134
       561 313138 313138 313138 313138
       562 313139 313139 313139 313139
       563 313143 313143 313143 313143
       564 313144 313144 313144 313144
       565 313146 313146 313146 313146
       566 313151 313151 313151 313151
       567 313153 313153 313153 313153
       568 313155 313155 313155 313155
       569 313157 313157 313157 313157
       570 313165 313165 313165 313165
       571 313169 313169 313169 313169
       572 313170 313170 313170 313170
       573 313174 313174 313174 313174
       574 313175 313175 313175 313175
       575 313177 313177 313177 313177
       576 313178 313178 313178 313178
       577 313183 313183 313183 313183
       578 313185 313185 313185 313185
       579 313188 313188 313188 313188
       580 313190 313190 313190 313190
       581 313198 313198 313198 313198
       582 313202 313202 313202 313202
       583 313203 313203 313203 313203
       584 313207 313207 313207 313207
       585 313211 313211 313211 313211
       586 313212 313212 313212 313212
       587 313217 313217 313217 313217
       588 313218 313218 313218 313218
       589 313221 313221 313221 313221
       590 313223 313223 313223 313223
       591 313225 313225 313225 313225
       592 313233 313233 313233 313233
       593 313237 313237 313237 313237
       594 313238 313238 313238 313238
       595 313242 313242 313242 313242
       596 313246 313246 313246 313246
       597 313247 313247 313247 313247
       598 313252 313252 313252 313252
       599 313253 313253 313253 313253
       600 313255 313255 313255 313255
       601 313258 313258 313258 313258
       602 313260 313260 313260 313260
       603 313268 313268 313268 313268
       604 313272 313272 313272 313272
       605 313273 313273 313273 313273
       606 313277 313277 313277 313277
       607 313280 313280 313280 313280
       608 313281 313281 313281 313281
       609 313286 313286 313286 313286
       610 313287 313287 313287 313287
       611 313289 313289 313289 313289
       612 313292 313292 313292 313292
       613 313294 313294 313294 313294
       614 313302 313302 313302 313302
       615 313306 313306 313306 313306
       616 313307 313307 313307 313307
       617 313311 313311 313311 313311
       618 313313 313313 313313 313313
       619 313314 313314 313314 313314
       620 313319 313319 313319 313319
       621 313320 313320 313320 313320
       622 313323 313323 313323 313323
       623 313325 313325 313325 313325
       624 313327 313327 313327 313327
       625 313335 313335 313335 313335
       626 313339 313339 313339 313339
       627 313340 313340 313340 313340
       628 313344 313344 313344 313344
       629 313347 313347 313347 313347
       630 313349 313349 313349 313349
       631 313354 313354 313354 313354
       632 313355 313355 313355 313355
       633 313358 313358 313358 313358
       634 313360 313360 313360 313360
       635 313363 313363 313363 313363
       636 313370 313370 313370 313370
       637 313374 313374 313374 313374
       638 313375 313375 313375 313375
       639 313379 313379 313379 313379
       640 313382 313382 313382 313382
       641 313383 313383 313383 313383
       642 313388 313388 313388 313388
       643 313389 313389 313389 313389
       644 313392 313392 313392 313392
       645 313394 313394 313394 313394
       646 313395 313395 313395 313395
       647 313404 313404 313404 313404
       648 313408 313408 313408 313408
       649 313409 313409 313409 313409
       650 313413 313413 313413 313413
       651 313414 313414 313414 313414
       652 313415 313415 313415 313415
       653 313417 313417 313417 313417
       654 313418 313418 313418 313418
       655 313420 313420 313420 313420
       656 313421 313421 313421 313421
       657 313426 313426 313426 313426
       658 313427 313427 313427 313427
       659 313430 313430 313430 313430
       660 313432 313432 313432 313432
       661 313435 313435 313435 313435
       662 313442 313442 313442 313442
       663 313446 313446 313446 313446
       664 313447 313447 313447 313447
       665 313451 313451 313451 313451
       666 313453 313453 313453 313453
       667 313455 313455 313455 313455
       668 313456 313456 313456 313456
       669 313461 313461 313461 313461
       670 313462 313462 313462 313462
       671 313465 313465 313465 313465
       672 313467 313467 313467 313467
       673 313468 313468 313468 313468
       674 313477 313477 313477 313477
       675 313481 313481 313481 313481
       676 313482 313482 313482 313482
       677 313486 313486 313486 313486
       678 313488 313488 313488 313488
       679 313489 313489 313489 313489
       680 313491 313491 313491 313491
       681 313492 313492 313492 313492
       682 313497 313497 313497 313497
       683 313498 313498 313498 313498
       684 313501 313501 313501 313501
       685 313503 313503 313503 313503
       686 313505 313505 313505 313505
       687 313513 313513 313513 313513
       688 313517 313517 313517 313517
       689 313518 313518 313518 313518
       690 313522 313522 313522 313522
       691 313524 313524 313524 313524
       692 313526 313526 313526 313526
       693 313532 313532 313532 313532
       694 313533 313533 313533 313533
       695 313536 313536 313536 313536
       696 313538 313538 313538 313538
       697 313541 313541 313541 313541
       698 313547 313547 313547 313547
       699 313551 313551 313551 313551
       700 313552 313552 313552 313552
       701 313556 313556 313556 313556
       702 313557 313557 313557 313557
       703 313558 313558 313558 313558
       704 313560 313560 313560 313560
       705 313565 313565 313565 313565
       706 313566 313566 313566 313566
       707 313569 313569 313569 313569
       708 313571 313571 313571 313571
       709 313581 313581 313581 313581
       710 313585 313585 313585 313585
       711 313586 313586 313586 313586
       712 313590 313590 313590 313590
       713 313591 313591 313591 313591
       714 313592 313592 313592 313592
       715 313594 313594 313594 313594
       716 313595 313595 313595 313595
       717 313599 313599 313599 313599
       718 313600 313600 313600 313600
       719 313603 313603 313603 313603
       720 313605 313605 313605 313605
       721 313615 313615 313615 313615
       722 313619 313619 313619 313619
       723 313620 313620 313620 313620
       724 313621 313621 313621 313621
       725 313624 313624 313624 313624
       726 313625 313625 313625 313625
       727 313628 313628 313628 313628
       728 313630 313630 313630 313630
       729 313631 313631 313631 313631
       730 313636 313636 313636 313636
       731 313637 313637 313637 313637
       732 313640 313640 313640 313640
       733 313642 313642 313642 313642
       734 313652 313652 313652 313652
       735 313656 313656 313656 313656
       736 313657 313657 313657 313657
       737 313658 313658 313658 313658
       738 313661 313661 313661 313661
       739 313663 313663 313663 313663
       740 313664 313664 313664 313664
       741 313666 313666 313666 313666
       742 313671 313671 313671 313671
       743 313672 313672 313672 313672
       744 313675 313675 313675 313675
       745 313677 313677 313677 313677
       746 313686 313686 313686 313686
       747 313690 313690 313690 313690
       748 313691 313691 313691 313691
       749 313692 313692 313692 313692
       750 313695 313695 313695 313695
       751 313697 313697 313697 313697
       752 313698 313698 313698 313698
       753 313703 313703 313703 313703
       754 313706 313706 313706 313706
       755 313708 313708 313708 313708
       756 313718 313718 313718 313718
       757 313721 313721 313721 313721
       758 313722 313722 313722 313722
       759 313723 313723 313723 313723
       760 313726 313726 313726 313726
       761 313727 313727 313727 313727
       762 313728 313728 313728 313728
       763 313730 313730 313730 313730
       764 313735 313735 313735 313735
       765 313739 313739 313739 313739
       766 313741 313741 313741 313741
       767 313751 313751 313751 313751
       768 313755 313755 313755 313755
       769 313756 313756 313756 313756
       770 313757 313757 313757 313757
       771 313760 313760 313760 313760
       772 313765 313765 313765 313765
       773 313766 313766 313766 313766
       774 313771 313771 313771 313771
       775 313775 313775 313775 313775
       776 313777 313777 313777 313777
       777 313786 313786 313786 313786
       778 313790 313790 313790 313790
       779 313791 313791 313791 313791
       780 313792 313792 313792 313792
       781 313795 313795 313795 313795
       782 313799 313799 313799 313799
       783 313800 313800 313800 313800
       784 313805 313805 313805 313805
       785 313808 313808 313808 313808
       786 313812 313812 313812 313812
       787 313820 313820 313820 313820
       788 313824 313824 313824 313824
       789 313825 313825 313825 313825
       790 313826 313826 313826 313826
       791 313829 313829 313829 313829
       792 313831 313831 313831 313831
       793 313834 313834 313834 313834
       794 313835 313835 313835 313835
       795 313840 313840 313840 313840
       796 313844 313844 313844 313844
       797 313846 313846 313846 313846
       798 313856 313856 313856 313856
       799 313860 313860 313860 313860
       800 313861 313861 313861 313861
       801 313862 313862 313862 313862
       802 313865 313865 313865 313865
       803 313868 313868 313868 313868
       804 313869 313869 313869 313869
       805 313874 313874 313874 313874
       806 313878 313878 313878 313878
       807 313880 313880 313880 313880
       808 313890 313890 313890 313890
       809 313894 313894 313894 313894
       810 313895 313895 313895 313895
       811 313898 313898 313898 313898
       812 313902 313902 313902 313902
       813 313903 313903 313903 313903
       814 313908 313908 313908 313908
       815 313912 313912 313912 313912
       816 313913 313913 313913 313913
       817 313923 313923 313923 313923
       818 313927 313927 313927 313927
       819 313929 313929 313929 313929
       820 313932 313932 313932 313932
       821 313934 313934 313934 313934
       822 313935 313935 313935 313935
       823 313940 313940 313940 313940
       824 313944 313944 313944 313944
       825 313946 313946 313946 313946
       826 313956 313956 313956 313956
       827 313960 313960 313960 313960
       828 313962 313962 313962 313962
       829 313965 313965 313965 313965
       830 313968 313968 313968 313968
       831 313969 313969 313969 313969
       832 313974 313974 313974 313974
       833 313979 313979 313979 313979
       834 313980 313980 313980 313980
       835 313990 313990 313990 313990
       836 313994 313994 313994 313994
       837 313996 313996 313996 313996
       838 313999 313999 313999 313999
       839 314002 314002 314002 314002
       840 314003 314003 314003 314003
       841 314008 314008 314008 314008
       842 314014 314014 314014 314014
       843 314017 314017 314017 314017
       844 314024 314024 314024 314024
       845 314028 314028 314028 314028
       846 314030 314030 314030 314030
       847 314033 314033 314033 314033
       848 314036 314036 314036 314036
       849 314037 314037 314037 314037
       850 314042 314042 314042 314042
       851 314048 314048 314048 314048
       852 314051 314051 314051 314051
       853 314058 314058 314058 314058
       854 314062 314062 314062 314062
       855 314064 314064 314064 314064
       856 314067 314067 314067 314067
       857 314069 314069 314069 314069
       858 314071 314071 314071 314071
       859 314072 314072 314072 314072
       860 314077 314077 314077 314077
       861 314083 314083 314083 314083
       862 314086 314086 314086 314086
       863 314093 314093 314093 314093
       864 314097 314097 314097 314097
       865 314099 314099 314099 314099
       866 314102 314102 314102 314102
       867 314105 314105 314105 314105
       868 314106 314106 314106 314106
       869 314111 314111 314111 314111
       870 314117 314117 314117 314117
       871 314119 314119 314119 314119
       872 314126 314126 314126 314126
       873 314130 314130 314130 314130
       874 314132 314132 314132 314132
       875 314135 314135 314135 314135
       876 314137 314137 314137 314137
       877 314138 314138 314138 314138
       878 314143 314143 314143 314143
       879 314149 314149 314149 314149
       880 314152 314152 314152 314152
       881 314159 314159 314159 314159
       882 314163 314163 314163 314163
       883 314165 314165 314165 314165
       884 314168 314168 314168 314168
       885 314169 314169 314169 314169
       886 314170 314170 314170 314170
       887 314171 314171 314171 314171
       888 314176 314176 314176 314176
       889 314182 314182 314182 314182
       890 314185 314185 314185 314185
       891 314191 314191 314191 314191
       892 314195 314195 314195 314195
       893 314197 314197 314197 314197
       894 314200 314200 314200 314200
       895 314202 314202 314202 314202
       896 314203 314203 314203 314203
       897 314204 314204 314204 314204
       898 314208 314208 314208 314208
       899 314214 314214 314214 314214
       900 314217 314217 314217 314217
       901 314220 314220 314220 314220
       902 314224 314224 314224 314224
       903 314228 314228 314228 314228
       904 314230 314230 314230 314230
       905 314233 314233 314233 314233
       906 314234 314234 314234 314234
       907 314236 314236 314236 314236
       908 314237 314237 314237 314237
       909 314240 314240 314240 314240
       910 314242 314242 314242 314242
       911 314248 314248 314248 314248
       912 314253 314253 314253 314253
       913 314257 314257 314257 314257
       914 314261 314261 314261 314261
       915 314263 314263 314263 314263
       916 314266 314266 314266 314266
       917 314268 314268 314268 314268
       918 314269 314269 314269 314269
       919 314270 314270 314270 314270
       920 314272 314272 314272 314272
       921 314275 314275 314275 314275
       922 314276 314276 314276 314276
       923 314281 314281 314281 314281
       924 314284 314284 314284 314284
       925 314287 314287 314287 314287
       926 314291 314291 314291 314291
       927 314295 314295 314295 314295
       928 314297 314297 314297 314297
       929 314300 314300 314300 314300
       930 314301 314301 314301 314301
       931 314302 314302 314302 314302
       932 314303 314303 314303 314303
       933 314305 314305 314305 314305
       934 314308 314308 314308 314308
       935 314313 314313 314313 314313
       936 314316 314316 314316 314316
       937 314319 314319 314319 314319
       938 314323 314323 314323 314323
       939 314327 314327 314327 314327
       940 314329 314329 314329 314329
       941 314332 314332 314332 314332
       942 314333 314333 314333 314333
       943 314335 314335 314335 314335
       944 314336 314336 314336 314336
       945 314337 314337 314337 314337
       946 314340 314340 314340 314340
       947 314342 314342 314342 314342
       948 314348 314348 314348 314348
       949 314351 314351 314351 314351
       950 314354 314354 314354 314354
       951 314358 314358 314358 314358
       952 314362 314362 314362 314362
       953 314364 314364 314364 314364
       954 314367 314367 314367 314367
       955 314368 314368 314368 314368
       956 314369 314369 314369 314369
       957 314370 314370 314370 314370
       958 314373 314373 314373 314373
       959 314374 314374 314374 314374
       960 314376 314376 314376 314376
       961 314381 314381 314381 314381
       962 314384 314384 314384 314384
       963 314387 314387 314387 314387
       964 314391 314391 314391 314391
       965 314395 314395 314395 314395
       966 314397 314397 314397 314397
       967 314400 314400 314400 314400
       968 314402 314402 314402 314402
       969 314403 314403 314403 314403
       970 314407 314407 314407 314407
       971 314408 314408 314408 314408
       972 314410 314410 314410 314410
       973 314414 314414 314414 314414
       974 314417 314417 314417 314417
       975 314420 314420 314420 314420
       976 314424 314424 314424 314424
       977 314428 314428 314428 314428
       978 314430 314430 314430 314430
       979 314433 314433 314433 314433
       980 314434 314434 314434 314434
       981 314435 314435 314435 314435
       982 314439 314439 314439 314439
       983 314441 314441 314441 314441
       984 314442 314442 314442 314442
       985 314447 314447 314447 314447
       986 314450 314450 314450 314450
       987 314453 314453 314453 314453
       988 314457 314457 314457 314457
       989 314461 314461 314461 314461
       990 314462 314462 314462 314462
       991 314465 314465 314465 314465
       992 314468 314468 314468 314468
       993 314469 314469 314469 314469
       994 314473 314473 314473 314473
       995 314475 314475 314475 314475
       996 314476 314476 314476 314476
       997 314481 314481 314481 314481
       998 314486 314486 314486 314486
       999 314490 314490 314490 314490
       1000 314494 314494 314494 314494
       1001 314495 314495 314495 314495
       1002 314496 314496 314496 314496
       1003 314499 314499 314499 314499
       1004 314500 314500 314500 314500
       1005 314501 314501 314501 314501
       1006 314505 314505 314505 314505
       1007 314508 314508 314508 314508
       1008 314509 314509 314509 314509
       1009 314512 314512 314512 314512
       1010 314518 314518 314518 314518
       1011 314522 314522 314522 314522
       1012 314526 314526 314526 314526
       1013 314527 314527 314527 314527
       1014 314528 314528 314528 314528
       1015 314531 314531 314531 314531
       1016 314532 314532 314532 314532
       1017 314533 314533 314533 314533
       1018 314537 314537 314537 314537
       1019 314539 314539 314539 314539
       1020 314540 314540 314540 314540
       1021 314543 314543 314543 314543
       1022 314545 314545 314545 314545
       1023 314551 314551 314551 314551
       1024 314555 314555 314555 314555
       1025 314559 314559 314559 314559
       1026 314560 314560 314560 314560
       1027 314561 314561 314561 314561
       1028 314564 314564 314564 314564
       1029 314565 314565 314565 314565
       1030 314566 314566 314566 314566
       1031 314570 314570 314570 314570
       1032 314572 314572 314572 314572
       1033 314573 314573 314573 314573
       1034 314576 314576 314576 314576
       1035 314578 314578 314578 314578
       1036 314584 314584 314584 314584
       1037 314588 314588 314588 314588
       1038 314592 314592 314592 314592
       1039 314593 314593 314593 314593
       1040 314594 314594 314594 314594
       1041 314597 314597 314597 314597
       1042 314598 314598 314598 314598
       1043 314599 314599 314599 314599
       1044 314603 314603 314603 314603
       1045 314605 314605 314605 314605
       1046 314606 314606 314606 314606
       1047 314607 314607 314607 314607
       1048 314611 314611 314611 314611
       1049 314617 314617 314617 314617
       1050 314621 314621 314621 314621
       1051 314625 314625 314625 314625
       1052 314626 314626 314626 314626
       1053 314627 314627 314627 314627
       1054 314630 314630 314630 314630
       1055 314632 314632 314632 314632
       1056 314633 314633 314633 314633
       1057 314637 314637 314637 314637
       1058 314639 314639 314639 314639
       1059 314640 314640 314640 314640
       1060 314643 314643 314643 314643
       1061 314645 314645 314645 314645
       1062 314651 314651 314651 314651
       1063 314655 314655 314655 314655
       1064 314659 314659 314659 314659
       1065 314660 314660 314660 314660
       1066 314661 314661 314661 314661
       1067 314664 314664 314664 314664
       1068 314665 314665 314665 314665
       1069 314666 314666 314666 314666
       1070 314670 314670 314670 314670
       1071 314672 314672 314672 314672
       1072 314673 314673 314673 314673
       1073 314676 314676 314676 314676
       1074 314678 314678 314678 314678
       1075 314684 314684 314684 314684
       1076 314687 314687 314687 314687
       1077 314691 314691 314691 314691
       1078 314692 314692 314692 314692
       1079 314693 314693 314693 314693
       1080 314696 314696 314696 314696
       1081 314699 314699 314699 314699
       1082 314700 314700 314700 314700
       1083 314702 314702 314702 314702
       1084 314704 314704 314704 314704
       1085 314705 314705 314705 314705
       1086 314708 314708 314708 314708
       1087 314710 314710 314710 314710
       1088 314715 314715 314715 314715
       1089 314716 314716 314716 314716
       1090 314719 314719 314719 314719
       1091 314723 314723 314723 314723
       1092 314724 314724 314724 314724
       1093 314725 314725 314725 314725
       1094 314728 314728 314728 314728
       1095 314731 314731 314731 314731
       1096 314732 314732 314732 314732
       1097 314736 314736 314736 314736
       1098 314738 314738 314738 314738
       1099 314739 314739 314739 314739
       1100 314742 314742 314742 314742
       1101 314744 314744 314744 314744
       1102 314750 314750 314750 314750
       1103 314751 314751 314751 314751
       1104 314754 314754 314754 314754
       1105 314758 314758 314758 314758
       1106 314759 314759 314759 314759
       1107 314760 314760 314760 314760
       1108 314763 314763 314763 314763
       1109 314766 314766 314766 314766
       1110 314767 314767 314767 314767
       1111 314771 314771 314771 314771
       1112 314773 314773 314773 314773
       1113 314774 314774 314774 314774
       1114 314777 314777 314777 314777
       1115 314779 314779 314779 314779
       1116 314785 314785 314785 314785
       1117 314786 314786 314786 314786
       1118 314789 314789 314789 314789
       1119 314793 314793 314793 314793
       1120 314794 314794 314794 314794
       1121 314795 314795 314795 314795
       1122 314798 314798 314798 314798
       1123 314801 314801 314801 314801
       1124 314802 314802 314802 314802
       1125 314806 314806 314806 314806
       1126 314808 314808 314808 314808
       1127 314809 314809 314809 314809
       1128 314812 314812 314812 314812
       1129 314814 314814 314814 314814
       1130 314820 314820 314820 314820
       1131 314821 314821 314821 314821
       1132 314824 314824 314824 314824
       1133 314828 314828 314828 314828
       1134 314829 314829 314829 314829
       1135 314830 314830 314830 314830
       1136 314833 314833 314833 314833
       1137 314836 314836 314836 314836
       1138 314837 314837 314837 314837
       1139 314838 314838 314838 314838
       1140 314842 314842 314842 314842
       1141 314844 314844 314844 314844
       1142 314845 314845 314845 314845
       1143 314848 314848 314848 314848
       1144 314850 314850 314850 314850
       1145 314856 314856 314856 314856
       1146 314857 314857 314857 314857
       1147 314860 314860 314860 314860
       1148 314864 314864 314864 314864
       1149 314865 314865 314865 314865
       1150 314866 314866 314866 314866
       1151 314869 314869 314869 314869
       1152 314872 314872 314872 314872
       1153 314874 314874 314874 314874
       1154 314877 314877 314877 314877
       1155 314879 314879 314879 314879
       1156 314880 314880 314880 314880
       1157 314883 314883 314883 314883
       1158 314885 314885 314885 314885
       1159 314891 314891 314891 314891
       1160 314892 314892 314892 314892
       1161 314895 314895 314895 314895
       1162 314899 314899 314899 314899
       1163 314900 314900 314900 314900
       1164 314901 314901 314901 314901
       1165 314904 314904 314904 314904
       1166 314905 314905 314905 314905
       1167 314906 314906 314906 314906
       1168 314907 314907 314907 314907
       1169 314908 314908 314908 314908
       1170 314909 314909 314909 314909
       1171 314913 314913 314913 314913
       1172 314914 314914 314914 314914
       1173 314915 314915 314915 314915
       1174 314918 314918 314918 314918
       1175 314920 314920 314920 314920
       1176 314926 314926 314926 314926
       1177 314927 314927 314927 314927
       1178 314930 314930 314930 314930
       1179 314934 314934 314934 314934
       1180 314935 314935 314935 314935
       1181 314936 314936 314936 314936
       1182 314939 314939 314939 314939
       1183 314940 314940 314940 314940
       1184 314942 314942 314942 314942
       1185 314943 314943 314943 314943
       1186 314944 314944 314944 314944
       1187 314948 314948 314948 314948
       1188 314950 314950 314950 314950
       1189 314951 314951 314951 314951
       1190 314954 314954 314954 314954
       1191 314956 314956 314956 314956
       1192 314961 314961 314961 314961
       1193 314962 314962 314962 314962
       1194 314965 314965 314965 314965
       1195 314969 314969 314969 314969
       1196 314970 314970 314970 314970
       1197 314971 314971 314971 314971
       1198 314974 314974 314974 314974
       1199 314975 314975 314975 314975
       1200 314976 314976 314976 314976
       1201 314977 314977 314977 314977
       1202 314978 314978 314978 314978
       1203 314983 314983 314983 314983
       1204 314984 314984 314984 314984
       1205 314985 314985 314985 314985
       1206 314988 314988 314988 314988
       1207 314990 314990 314990 314990
       1208 314993 314993 314993 314993
       1209 314996 314996 314996 314996
       1210 314997 314997 314997 314997
       1211 315000 315000 315000 315000
       1212 315004 315004 315004 315004
       1213 315005 315005 315005 315005
       1214 315006 315006 315006 315006
       1215 315009 315009 315009 315009
       1216 315012 315012 315012 315012
       1217 315013 315013 315013 315013
       1218 315018 315018 315018 315018
       1219 315019 315019 315019 315019
       1220 315022 315022 315022 315022
       1221 315024 315024 315024 315024
       1222 315027 315027 315027 315027
       1223 315030 315030 315030 315030
       1224 315031 315031 315031 315031
       1225 315034 315034 315034 315034
       1226 315038 315038 315038 315038
       1227 315039 315039 315039 315039
       1228 315040 315040 315040 315040
       1229 315043 315043 315043 315043
       1230 315046 315046 315046 315046
       1231 315047 315047 315047 315047
       1232 315051 315051 315051 315051
       1233 315053 315053 315053 315053
       1234 315057 315057 315057 315057
       1235 315059 315059 315059 315059
       1236 315062 315062 315062 315062
       1237 315065 315065 315065 315065
       1238 315066 315066 315066 315066
       1239 315069 315069 315069 315069
       1240 315073 315073 315073 315073
       1241 315074 315074 315074 315074
       1242 315075 315075 315075 315075
       1243 315078 315078 315078 315078
       1244 315081 315081 315081 315081
       1245 315082 315082 315082 315082
       1246 315083 315083 315083 315083
       1247 315087 315087 315087 315087
       1248 315089 315089 315089 315089
       1249 315093 315093 315093 315093
       1250 315095 315095 315095 315095
       1251 315098 315098 315098 315098
       1252 315101 315101 315101 315101
       1253 315102 315102 315102 315102
       1254 315105 315105 315105 315105
       1255 315109 315109 315109 315109
       1256 315110 315110 315110 315110
       1257 315111 315111 315111 315111
       1258 315114 315114 315114 315114
       1259 315116 315116 315116 315116
       1260 315117 315117 315117 315117
       1261 315121 315121 315121 315121
       1262 315123 315123 315123 315123
       1263 315126 315126 315126 315126
       1264 315128 315128 315128 315128
       1265 315131 315131 315131 315131
       1266 315134 315134 315134 315134
       1267 315135 315135 315135 315135
       1268 315138 315138 315138 315138
       1269 315142 315142 315142 315142
       1270 315143 315143 315143 315143
       1271 315144 315144 315144 315144
       1272 315147 315147 315147 315147
       1273 315149 315149 315149 315149
       1274 315150 315150 315150 315150
       1275 315153 315153 315153 315153
       1276 315154 315154 315154 315154
       1277 315158 315158 315158 315158
       1278 315160 315160 315160 315160
       1279 315163 315163 315163 315163
       1280 315164 315164 315164 315164
       1281 315166 315166 315166 315166
       1282 315169 315169 315169 315169
       1283 315172 315172 315172 315172
       1284 315173 315173 315173 315173
       1285 315176 315176 315176 315176
       1286 315180 315180 315180 315180
       1287 315181 315181 315181 315181
       1288 315182 315182 315182 315182
       1289 315185 315185 315185 315185
       1290 315186 315186 315186 315186
       1291 315187 315187 315187 315187
       1292 315188 315188 315188 315188
       1293 315189 315189 315189 315189
       1294 315190 315190 315190 315190
       1295 315191 315191 315191 315191
       1296 315195 315195 315195 315195
       1297 315197 315197 315197 315197
       1298 315199 315199 315199 315199
       1299 315201 315201 315201 315201
       1300 315203 315203 315203 315203
       1301 315208 315208 315208 315208
       1302 315209 315209 315209 315209
       1303 315211 315211 315211 315211
       1304 315215 315215 315215 315215
       1305 315216 315216 315216 315216
       1306 315217 315217 315217 315217
       1307 315220 315220 315220 315220
       1308 315223 315223 315223 315223
       1309 315224 315224 315224 315224
       1310 315228 315228 315228 315228
       1311 315230 315230 315230 315230
       1312 315232 315232 315232 315232
       1313 315234 315234 315234 315234
       1314 315235 315235 315235 315235
       1315 315238 315238 315238 315238
       1316 315241 315241 315241 315241
       1317 315242 315242 315242 315242
       1318 315243 315243 315243 315243
       1319 315245 315245 315245 315245
       1320 315249 315249 315249 315249
       1321 315250 315250 315250 315250
       1322 315251 315251 315251 315251
       1323 315254 315254 315254 315254
       1324 315255 315255 315255 315255
       1325 315256 315256 315256 315256
       1326 315257 315257 315257 315257
       1327 315259 315259 315259 315259
       1328 315262 315262 315262 315262
       1329 315263 315263 315263 315263
       1330 315267 315267 315267 315267
       1331 315269 315269 315269 315269
       1332 315272 315272 315272 315272
       1333 315273 315273 315273 315273
       1334 315274 315274 315274 315274
       1335 315275 315275 315275 315275
       1336 315278 315278 315278 315278
       1337 315281 315281 315281 315281
       1338 315282 315282 315282 315282
       1339 315283 315283 315283 315283
       1340 315285 315285 315285 315285
       1341 315289 315289 315289 315289
       1342 315290 315290 315290 315290
       1343 315291 315291 315291 315291
       1344 315294 315294 315294 315294
       1345 315298 315298 315298 315298
       1346 315299 315299 315299 315299
       1347 315300 315300 315300 315300
       1348 315304 315304 315304 315304
       1349 315306 315306 315306 315306
       1350 315309 315309 315309 315309
       1351 315310 315310 315310 315310
       1352 315311 315311 315311 315311
       1353 315312 315312 315312 315312
       1354 315315 315315 315315 315315
       1355 315318 315318 315318 315318
       1356 315319 315319 315319 315319
       1357 315320 315320 315320 315320
       1358 315322 315322 315322 315322
       1359 315326 315326 315326 315326
       1360 315327 315327 315327 315327
       1361 315328 315328 315328 315328
       1362 315331 315331 315331 315331
       1363 315334 315334 315334 315334
       1364 315335 315335 315335 315335
       1365 315336 315336 315336 315336
       1366 315340 315340 315340 315340
       1367 315342 315342 315342 315342
       1368 315345 315345 315345 315345
       1369 315347 315347 315347 315347
       1370 315348 315348 315348 315348
       1371 315351 315351 315351 315351
       1372 315354 315354 315354 315354
       1373 315355 315355 315355 315355
       1374 315356 315356 315356 315356
       1375 315358 315358 315358 315358
       1376 315362 315362 315362 315362
       1377 315363 315363 315363 315363
       1378 315364 315364 315364 315364
       1379 315367 315367 315367 315367
       1380 315371 315371 315371 315371
       1381 315373 315373 315373 315373
       1382 315377 315377 315377 315377
       1383 315379 315379 315379 315379
       1384 315382 315382 315382 315382
       1385 315384 315384 315384 315384
       1386 315385 315385 315385 315385
       1387 315388 315388 315388 315388
       1388 315391 315391 315391 315391
       1389 315392 315392 315392 315392
       1390 315393 315393 315393 315393
       1391 315395 315395 315395 315395
       1392 315398 315398 315398 315398
       1393 315399 315399 315399 315399
       1394 315400 315400 315400 315400
       1395 315403 315403 315403 315403
       1396 315406 315406 315406 315406
       1397 315410 315410 315410 315410
       1398 315412 315412 315412 315412
       1399 315415 315415 315415 315415
       1400 315417 315417 315417 315417
       1401 315418 315418 315418 315418
       1402 315421 315421 315421 315421
       1403 315425 315425 315425 315425
       1404 315426 315426 315426 315426
       1405 315428 315428 315428 315428
       1406 315432 315432 315432 315432
       1407 315433 315433 315433 315433
       1408 315434 315434 315434 315434
       1409 315436 315436 315436 315436
       1410 315438 315438 315438 315438
       1411 315441 315441 315441 315441
       1412 315445 315445 315445 315445
       1413 315447 315447 315447 315447
       1414 315450 315450 315450 315450
       1415 315452 315452 315452 315452
       1416 315453 315453 315453 315453
       1417 315459 315459 315459 315459
       1418 315460 315460 315460 315460
       1419 315462 315462 315462 315462
       1420 315466 315466 315466 315466
       1421 315467 315467 315467 315467
       1422 315468 315468 315468 315468
       1423 315471 315471 315471 315471
       1424 315478 315478 315478 315478
       1425 315480 315480 315480 315480
       1426 315483 315483 315483 315483
       1427 315485 315485 315485 315485
       1428 315486 315486 315486 315486
       1429 315493 315493 315493 315493
       1430 315494 315494 315494 315494
       1431 315496 315496 315496 315496
       1432 315500 315500 315500 315500
       1433 315501 315501 315501 315501
       1434 315502 315502 315502 315502
       1435 315505 315505 315505 315505
       1436 315508 315508 315508 315508
       1437 315514 315514 315514 315514
       1438 315516 315516 315516 315516
       1439 315519 315519 315519 315519
       1440 315521 315521 315521 315521
       1441 315522 315522 315522 315522
       1442 315529 315529 315529 315529
       1443 315530 315530 315530 315530
       1444 315532 315532 315532 315532
       1445 315536 315536 315536 315536
       1446 315537 315537 315537 315537
       1447 315538 315538 315538 315538
       1448 315541 315541 315541 315541
       1449 315551 315551 315551 315551
       1450 315554 315554 315554 315554
       1451 315556 315556 315556 315556
       1452 315557 315557 315557 315557
       1453 315564 315564 315564 315564
       1454 315565 315565 315565 315565
       1455 315567 315567 315567 315567
       1456 315571 315571 315571 315571
       1457 315572 315572 315572 315572
       1458 315575 315575 315575 315575
       1459 315577 315577 315577 315577
       1460 315587 315587 315587 315587
       1461 315590 315590 315590 315590
       1462 315592 315592 315592 315592
       1463 315593 315593 315593 315593
       1464 315599 315599 315599 315599
       1465 315600 315600 315600 315600
       1466 315602 315602 315602 315602
       1467 315606 315606 315606 315606
       1468 315607 315607 315607 315607
       1469 315608 315608 315608 315608
       1470 315611 315611 315611 315611
       1471 315615 315615 315615 315615
       1472 315622 315622 315622 315622
       1473 315623 315623 315623 315623
       1474 315625 315625 315625 315625
       1475 315627 315627 315627 315627
       1476 315628 315628 315628 315628
       1477 315635 315635 315635 315635
       1478 315636 315636 315636 315636
       1479 315638 315638 315638 315638
       1480 315642 315642 315642 315642
       1481 315643 315643 315643 315643
       1482 315644 315644 315644 315644
       1483 315647 315647 315647 315647
       1484 315648 315648 315648 315648
       1485 315649 315649 315649 315649
       1486 315650 315650 315650 315650
       1487 315658 315658 315658 315658
       1488 315660 315660 315660 315660
       1489 315662 315662 315662 315662
       1490 315663 315663 315663 315663
       1491 315670 315670 315670 315670
       1492 315671 315671 315671 315671
       1493 315673 315673 315673 315673
       1494 315677 315677 315677 315677
       1495 315678 315678 315678 315678
       1496 315679 315679 315679 315679
       1497 315682 315682 315682 315682
       1498 315687 315687 315687 315687
       1499 315695 315695 315695 315695
       1500 315696 315696 315696 315696
       1501 315698 315698 315698 315698
       1502 315700 315700 315700 315700
       1503 315701 315701 315701 315701
       1504 315707 315707 315707 315707
       1505 315708 315708 315708 315708
       1506 315710 315710 315710 315710
       1507 315714 315714 315714 315714
       1508 315715 315715 315715 315715
       1509 315716 315716 315716 315716
       1510 315719 315719 315719 315719
       1511 315729 315729 315729 315729
       1512 315730 315730 315730 315730
       1513 315732 315732 315732 315732
       1514 315734 315734 315734 315734
       1515 315735 315735 315735 315735
       1516 315742 315742 315742 315742
       1517 315743 315743 315743 315743
       1518 315745 315745 315745 315745
       1519 315749 315749 315749 315749
       1520 315750 315750 315750 315750
       1521 315751 315751 315751 315751
       1522 315754 315754 315754 315754
       1523 315764 315764 315764 315764
       1524 315765 315765 315765 315765
       1525 315766 315766 315766 315766
       1526 315768 315768 315768 315768
       1527 315769 315769 315769 315769
       1528 315776 315776 315776 315776
       1529 315777 315777 315777 315777
       1530 315779 315779 315779 315779
       1531 315783 315783 315783 315783
       1532 315784 315784 315784 315784
       1533 315785 315785 315785 315785
       1534 315788 315788 315788 315788
       1535 315791 315791 315791 315791
       1536 315792 315792 315792 315792
       1537 315802 315802 315802 315802
       1538 315803 315803 315803 315803
       1539 315805 315805 315805 315805
       1540 315807 315807 315807 315807
       1541 315808 315808 315808 315808
       1542 315815 315815 315815 315815
       1543 315816 315816 315816 315816
       1544 315818 315818 315818 315818
       1545 315822 315822 315822 315822
       1546 315823 315823 315823 315823
       1547 315824 315824 315824 315824
       1548 315827 315827 315827 315827
       1549 315835 315835 315835 315835
       1550 315837 315837 315837 315837
       1551 315838 315838 315838 315838
       1552 315840 315840 315840 315840
       1553 315841 315841 315841 315841
       1554 315848 315848 315848 315848
       1555 315849 315849 315849 315849
       1556 315851 315851 315851 315851
       1557 315855 315855 315855 315855
       1558 315856 315856 315856 315856
       1559 315857 315857 315857 315857
       1560 315860 315860 315860 315860
       1561 315870 315870 315870 315870
       1562 315872 315872 315872 315872
       1563 315873 315873 315873 315873
       1564 315874 315874 315874 315874
       1565 315875 315875 315875 315875
       1566 315882 315882 315882 315882
       1567 315883 315883 315883 315883
       1568 315885 315885 315885 315885
       1569 315889 315889 315889 315889
       1570 315890 315890 315890 315890
       1571 315891 315891 315891 315891
       1572 315894 315894 315894 315894
       1573 315896 315896 315896 315896
       1574 315904 315904 315904 315904
       1575 315905 315905 315905 315905
       1576 315907 315907 315907 315907
       1577 315909 315909 315909 315909
       1578 315910 315910 315910 315910
       1579 315917 315917 315917 315917
       1580 315918 315918 315918 315918
       1581 315920 315920 315920 315920
       1582 315924 315924 315924 315924
       1583 315926 315926 315926 315926
       1584 315931 315931 315931 315931
       1585 315932 315932 315932 315932
       1586 315940 315940 315940 315940
       1587 315941 315941 315941 315941
       1588 315943 315943 315943 315943
       1589 315945 315945 315945 315945
       1590 315946 315946 315946 315946
       1591 315952 315952 315952 315952
       1592 315953 315953 315953 315953
       1593 315955 315955 315955 315955
       1594 315959 315959 315959 315959
       1595 315961 315961 315961 315961
       1596 315972 315972 315972 315972
       1597 315973 315973 315973 315973
       1598 315975 315975 315975 315975
       1599 315977 315977 315977 315977
       1600 315978 315978 315978 315978
       1601 315981 315981 315981 315981
       1602 315985 315985 315985 315985
       1603 315986 315986 315986 315986
       1604 315988 315988 315988 315988
       1605 315992 315992 315992 315992
       1606 315994 315994 315994 315994
       1607 316005 316005 316005 316005
       1608 316006 316006 316006 316006
       1609 316008 316008 316008 316008
       1610 316010 316010 316010 316010
       1611 316011 316011 316011 316011
       1612 316014 316014 316014 316014
       1613 316018 316018 316018 316018
       1614 316019 316019 316019 316019
       1615 316021 316021 316021 316021
       1616 316022 316022 316022 316022
       1617 316025 316025 316025 316025
       1618 316027 316027 316027 316027
       1619 316041 316041 316041 316041
       1620 316042 316042 316042 316042
       1621 316044 316044 316044 316044
       1622 316046 316046 316046 316046
       1623 316047 316047 316047 316047
       1624 316050 316050 316050 316050
       1625 316054 316054 316054 316054
       1626 316055 316055 316055 316055
       1627 316057 316057 316057 316057
       1628 316058 316058 316058 316058
       1629 316061 316061 316061 316061
       1630 316063 316063 316063 316063
       1631 316075 316075 316075 316075
       1632 316076 316076 316076 316076
       1633 316078 316078 316078 316078
       1634 316080 316080 316080 316080
       1635 316081 316081 316081 316081
       1636 316084 316084 316084 316084
       1637 316088 316088 316088 316088
       1638 316089 316089 316089 316089
       1639 316091 316091 316091 316091
       1640 316092 316092 316092 316092
       1641 316095 316095 316095 316095
       1642 316097 316097 316097 316097
       1643 316101 316101 316101 316101
       1644 316102 316102 316102 316102
       1645 316112 316112 316112 316112
       1646 316113 316113 316113 316113
       1647 316115 316115 316115 316115
       1648 316117 316117 316117 316117
       1649 316118 316118 316118 316118
       1650 316121 316121 316121 316121
       1651 316125 316125 316125 316125
       1652 316126 316126 316126 316126
       1653 316128 316128 316128 316128
       1654 316129 316129 316129 316129
       1655 316132 316132 316132 316132
       1656 316134 316134 316134 316134
       1657 316148 316148 316148 316148
       1658 316149 316149 316149 316149
       1659 316151 316151 316151 316151
       1660 316153 316153 316153 316153
       1661 316154 316154 316154 316154
       1662 316157 316157 316157 316157
       1663 316161 316161 316161 316161
       1664 316162 316162 316162 316162
       1665 316164 316164 316164 316164
       1666 316165 316165 316165 316165
       1667 316168 316168 316168 316168
       1668 316170 316170 316170 316170
       1669 316176 316176 316176 316176
       1670 316185 316185 316185 316185
       1671 316186 316186 316186 316186
       1672 316188 316188 316188 316188
       1673 316190 316190 316190 316190
       1674 316191 316191 316191 316191
       1675 316197 316197 316197 316197
       1676 316198 316198 316198 316198
       1677 316200 316200 316200 316200
       1678 316201 316201 316201 316201
       1679 316204 316204 316204 316204
       1680 316206 316206 316206 316206
       1681 316210 316210 316210 316210
       1682 316212 316212 316212 316212
       1683 316220 316220 316220 316220
       1684 316221 316221 316221 316221
       1685 316223 316223 316223 316223
       1686 316225 316225 316225 316225
       1687 316226 316226 316226 316226
       1688 316229 316229 316229 316229
       1689 316233 316233 316233 316233
       1690 316234 316234 316234 316234
       1691 316236 316236 316236 316236
       1692 316237 316237 316237 316237
       1693 316240 316240 316240 316240
       1694 316242 316242 316242 316242
       1695 316246 316246 316246 316246
       1696 316247 316247 316247 316247
       1697 316248 316248 316248 316248
       1698 316257 316257 316257 316257
       1699 316258 316258 316258 316258
       1700 316260 316260 316260 316260
       1701 316262 316262 316262 316262
       1702 316263 316263 316263 316263
       1703 316266 316266 316266 316266
       1704 316270 316270 316270 316270
       1705 316271 316271 316271 316271
       1706 316273 316273 316273 316273
       1707 316274 316274 316274 316274
       1708 316277 316277 316277 316277
       1709 316279 316279 316279 316279
       1710 316283 316283 316283 316283
       1711 316291 316291 316291 316291
       1712 316292 316292 316292 316292
       1713 316294 316294 316294 316294
       1714 316296 316296 316296 316296
       1715 316297 316297 316297 316297
       1716 316300 316300 316300 316300
       1717 316304 316304 316304 316304
       1718 316305 316305 316305 316305
       1719 316307 316307 316307 316307
       1720 316308 316308 316308 316308
       1721 316311 316311 316311 316311
       1722 316313 316313 316313 316313
       1723 316329 316329 316329 316329
       1724 316330 316330 316330 316330
       1725 316331 316331 316331 316331
       1726 316332 316332 316332 316332
       1727 316334 316334 316334 316334
       1728 316335 316335 316335 316335
       1729 316342 316342 316342 316342
       1730 316343 316343 316343 316343
       1731 316345 316345 316345 316345
       1732 316346 316346 316346 316346
       1733 316349 316349 316349 316349
       1734 316351 316351 316351 316351
       1735 316362 316362 316362 316362
       1736 316363 316363 316363 316363
       1737 316364 316364 316364 316364
       1738 316365 316365 316365 316365
       1739 316367 316367 316367 316367
       1740 316368 316368 316368 316368
       1741 316375 316375 316375 316375
       1742 316376 316376 316376 316376
       1743 316378 316378 316378 316378
       1744 316379 316379 316379 316379
       1745 316382 316382 316382 316382
       1746 316384 316384 316384 316384
       1747 316395 316395 316395 316395
       1748 316396 316396 316396 316396
       1749 316397 316397 316397 316397
       1750 316399 316399 316399 316399
       1751 316400 316400 316400 316400
       1752 316407 316407 316407 316407
       1753 316408 316408 316408 316408
       1754 316410 316410 316410 316410
       1755 316411 316411 316411 316411
       1756 316414 316414 316414 316414
       1757 316416 316416 316416 316416
       1758 316420 316420 316420 316420
       1759 316421 316421 316421 316421
       1760 316431 316431 316431 316431
       1761 316432 316432 316432 316432
       1762 316433 316433 316433 316433
       1763 316434 316434 316434 316434
       1764 316436 316436 316436 316436
       1765 316437 316437 316437 316437
       1766 316443 316443 316443 316443
       1767 316444 316444 316444 316444
       1768 316446 316446 316446 316446
       1769 316447 316447 316447 316447
       1770 316450 316450 316450 316450
       1771 316452 316452 316452 316452
       1772 316466 316466 316466 316466
       1773 316467 316467 316467 316467
       1774 316468 316468 316468 316468
       1775 316469 316469 316469 316469
       1776 316471 316471 316471 316471
       1777 316472 316472 316472 316472
       1778 316479 316479 316479 316479
       1779 316480 316480 316480 316480
       1780 316482 316482 316482 316482
       1781 316483 316483 316483 316483
       1782 316486 316486 316486 316486
       1783 316488 316488 316488 316488
       1784 316500 316500 316500 316500
       1785 316501 316501 316501 316501
       1786 316502 316502 316502 316502
       1787 316504 316504 316504 316504
       1788 316505 316505 316505 316505
       1789 316512 316512 316512 316512
       1790 316513 316513 316513 316513
       1791 316515 316515 316515 316515
       1792 316516 316516 316516 316516
       1793 316519 316519 316519 316519
       1794 316521 316521 316521 316521
       1795 316530 316530 316530 316530
       1796 316531 316531 316531 316531
       1797 316540 316540 316540 316540
       1798 316541 316541 316541 316541
       1799 316542 316542 316542 316542
       1800 316545 316545 316545 316545
       1801 316546 316546 316546 316546
       1802 316553 316553 316553 316553
       1803 316554 316554 316554 316554
       1804 316556 316556 316556 316556
       1805 316557 316557 316557 316557
       1806 316560 316560 316560 316560
       1807 316562 316562 316562 316562
       1808 316575 316575 316575 316575
       1809 316576 316576 316576 316576
       1810 316577 316577 316577 316577
       1811 316580 316580 316580 316580
       1812 316581 316581 316581 316581
       1813 316588 316588 316588 316588
       1814 316589 316589 316589 316589
       1815 316591 316591 316591 316591
       1816 316592 316592 316592 316592
       1817 316595 316595 316595 316595
       1818 316597 316597 316597 316597
       1819 316601 316601 316601 316601
       1820 316602 316602 316602 316602
       1821 316611 316611 316611 316611
       1822 316613 316613 316613 316613
       1823 316614 316614 316614 316614
       1824 316616 316616 316616 316616
       1825 316623 316623 316623 316623
       1826 316624 316624 316624 316624
       1827 316626 316626 316626 316626
       1828 316627 316627 316627 316627
       1829 316630 316630 316630 316630
       1830 316632 316632 316632 316632
       1831 316644 316644 316644 316644
       1832 316645 316645 316645 316645
       1833 316646 316646 316646 316646
       1834 316649 316649 316649 316649
       1835 316650 316650 316650 316650
       1836 316657 316657 316657 316657
       1837 316658 316658 316658 316658
       1838 316660 316660 316660 316660
       1839 316661 316661 316661 316661
       1840 316664 316664 316664 316664
       1841 316666 316666 316666 316666
       1842 316670 316670 316670 316670
       1843 316673 316673 316673 316673
       1844 316682 316682 316682 316682
       1845 316683 316683 316683 316683
       1846 316684 316684 316684 316684
       1847 316687 316687 316687 316687
       1848 316688 316688 316688 316688
       1849 316695 316695 316695 316695
       1850 316696 316696 316696 316696
       1851 316698 316698 316698 316698
       1852 316699 316699 316699 316699
       1853 316702 316702 316702 316702
       1854 316704 316704 316704 316704
       1855 316716 316716 316716 316716
       1856 316717 316717 316717 316717
       1857 316718 316718 316718 316718
       1858 316721 316721 316721 316721
       1859 316722 316722 316722 316722
       1860 316729 316729 316729 316729
       1861 316730 316730 316730 316730
       1862 316732 316732 316732 316732
       1863 316733 316733 316733 316733
       1864 316736 316736 316736 316736
       1865 316738 316738 316738 316738
       1866 316748 316748 316748 316748
       1867 316749 316749 316749 316749
       1868 316750 316750 316750 316750
       1869 316753 316753 316753 316753
       1870 316754 316754 316754 316754
       1871 316761 316761 316761 316761
       1872 316762 316762 316762 316762
       1873 316764 316764 316764 316764
       1874 316765 316765 316765 316765
       1875 316768 316768 316768 316768
       1876 316770 316770 316770 316770
       1877 316775 316775 316775 316775
[...]
     number of failed beam   elements = 0
     number of failed shell  elements = 0
     number of failed tshell elements = 0
 f a i l e d   e l e m e n t   r e p o r t  time=  3.5739E-05
     number of failed solid  elements = 0
     number of failed beam   elements = 0
     number of failed shell  elements = 0
     number of failed tshell elements = 0
 f a i l e d   e l e m e n t   r e p o r t  time=  3.5816E-05
     number of failed solid  elements = 0
     number of failed beam   elements = 0
     number of failed shell  elements = 0
     number of failed tshell elements = 0
 f a i l e d   e l e m e n t   r e p o r t  time=  3.5845E-05
     number of failed solid  elements = 0
     number of failed beam   elements = 0
     number of failed shell  elements = 0
     number of failed tshell elements = 0
 f a i l e d   e l e m e n t   r e p o r t  time=  3.5962E-05
     number of failed solid  elements = 0
     number of failed beam   elements = 0
     number of failed shell  elements = 0
     number of failed tshell elements = 0
 f a i l e d   e l e m e n t   r e p o r t  time=  3.5979E-05
     number of failed solid  elements = 0
     number of failed beam   elements = 0
     number of failed shell  elements = 0
     number of failed tshell elements = 0
 f a i l e d   e l e m e n t   r e p o r t  time=  3.6037E-05
     number of failed solid  elements = 0
     number of failed beam   elements = 0
     number of failed shell  elements = 0
     number of failed tshell elements = 0
 f a i l e d   e l e m e n t   r e p o r t  time=  3.6102E-05
     number of failed solid  elements = 0
     number of failed beam   elements = 0
     number of failed shell  elements = 0
     number of failed tshell elements = 0
 f a i l e d   e l e m e n t   r e p o r t  time=  3.6114E-05
     number of failed solid  elements = 0
     number of failed beam   elements = 0
     number of failed shell  elements = 0
     number of failed tshell elements = 0
 f a i l e d   e l e m e n t   r e p o r t  time=  3.6409E-05
     number of failed solid  elements = 0
     number of failed beam   elements = 0
     number of failed shell  elements = 0
     number of failed tshell elements = 0
 f a i l e d   e l e m e n t   r e p o r t  time=  3.6810E-05
     number of failed solid  elements = 0
     number of failed beam   elements = 0
     number of failed shell  elements = 0
     number of failed tshell elements = 0
 f a i l e d   e l e m e n t   r e p o r t  time=  3.6819E-05
     number of failed solid  elements = 0
     number of failed beam   elements = 0
     number of failed shell  elements = 0
     number of failed tshell elements = 0
 f a i l e d   e l e m e n t   r e p o r t  time=  3.7076E-05
     number of failed solid  elements = 0
     number of failed beam   elements = 0
     number of failed shell  elements = 0
     number of failed tshell elements = 0
 f a i l e d   e l e m e n t   r e p o r t  time=  3.7247E-05
     number of failed solid  elements = 0
     number of failed beam   elements = 0
     number of failed shell  elements = 0
     number of failed tshell elements = 0
 f a i l e d   e l e m e n t   r e p o r t  time=  3.7499E-05
     number of failed solid  elements = 0
     number of failed beam   elements = 0
     number of failed shell  elements = 0
     number of failed tshell elements = 0
 f a i l e d   e l e m e n t   r e p o r t  time=  3.7525E-05
     number of failed solid  elements = 0
     number of failed beam   elements = 0
     number of failed shell  elements = 0
     number of failed tshell elements = 0
 f a i l e d   e l e m e n t   r e p o r t  time=  3.7794E-05
     number of failed solid  elements = 0
     number of failed beam   elements = 0
     number of failed shell  elements = 0
     number of failed tshell elements = 0
 f a i l e d   e l e m e n t   r e p o r t  time=  3.8064E-05
     number of failed solid  elements = 0
     number of failed beam   elements = 0
     number of failed shell  elements = 0
     number of failed tshell elements = 0
 f a i l e d   e l e m e n t   r e p o r t  time=  3.8136E-05
     number of failed solid  elements = 0
     number of failed beam   elements = 0
     number of failed shell  elements = 0
     number of failed tshell elements = 0
 f a i l e d   e l e m e n t   r e p o r t  time=  3.8276E-05
     number of failed solid  elements = 0
     number of failed beam   elements = 0
     number of failed shell  elements = 0
     number of failed tshell elements = 0
 f a i l e d   e l e m e n t   r e p o r t  time=  3.8521E-05
     number of failed solid  elements = 0
     number of failed beam   elements = 0
     number of failed shell  elements = 0
     number of failed tshell elements = 0
 f a i l e d   e l e m e n t   r e p o r t  time=  3.8904E-05
     number of failed solid  elements = 0
     number of failed beam   elements = 0
     number of failed shell  elements = 0
     number of failed tshell elements = 0
 f a i l e d   e l e m e n t   r e p o r t  time=  3.8928E-05
     number of failed solid  elements = 0
     number of failed beam   elements = 0
     number of failed shell  elements = 0
     number of failed tshell elements = 0
 f a i l e d   e l e m e n t   r e p o r t  time=  3.9038E-05
     number of failed solid  elements = 0
     number of failed beam   elements = 0
     number of failed shell  elements = 0
     number of failed tshell elements = 0
 f a i l e d   e l e m e n t   r e p o r t  time=  3.9104E-05
     number of failed solid  elements = 0
     number of failed beam   elements = 0
     number of failed shell  elements = 0
     number of failed tshell elements = 0
 f a i l e d   e l e m e n t   r e p o r t  time=  3.9287E-05
     number of failed solid  elements = 0
     number of failed beam   elements = 0
     number of failed shell  elements = 0
     number of failed tshell elements = 0
 f a i l e d   e l e m e n t   r e p o r t  time=  3.9396E-05
     number of failed solid  elements = 0
     number of failed beam   elements = 0
     number of failed shell  elements = 0
     number of failed tshell elements = 0
 f a i l e d   e l e m e n t   r e p o r t  time=  3.9468E-05
     number of failed solid  elements = 0
     number of failed beam   elements = 0
     number of failed shell  elements = 0
     number of failed tshell elements = 0
 f a i l e d   e l e m e n t   r e p o r t  time=  3.9576E-05
     number of failed solid  elements = 0
     number of failed beam   elements = 0
     number of failed shell  elements = 0
     number of failed tshell elements = 0
 f a i l e d   e l e m e n t   r e p o r t  time=  3.9710E-05
     number of failed solid  elements = 0
     number of failed beam   elements = 0
     number of failed shell  elements = 0
     number of failed tshell elements = 0
 f a i l e d   e l e m e n t   r e p o r t  time=  3.9779E-05
     number of failed solid  elements = 0
     number of failed beam   elements = 0
     number of failed shell  elements = 0
     number of failed tshell elements = 0
 f a i l e d   e l e m e n t   r e p o r t  time=  3.9780E-05
     number of failed solid  elements = 0
     number of failed beam   elements = 0
     number of failed shell  elements = 0
     number of failed tshell elements = 0
 f a i l e d   e l e m e n t   r e p o r t  time=  3.9873E-05
     number of failed solid  elements = 0
     number of failed beam   elements = 0
     number of failed shell  elements = 0
     number of failed tshell elements = 0
 f a i l e d   e l e m e n t   r e p o r t  time=  3.9985E-05
     number of failed solid  elements = 0
     number of failed beam   elements = 0
     number of failed shell  elements = 0
     number of failed tshell elements = 0
 f a i l e d   e l e m e n t   r e p o r t  time=  4.0140E-05
     number of failed solid  elements = 0
     number of failed beam   elements = 0
     number of failed shell  elements = 0
     number of failed tshell elements = 0
 f a i l e d   e l e m e n t   r e p o r t  time=  4.0197E-05
     number of failed solid  elements = 0
     number of failed beam   elements = 0
     number of failed shell  elements = 0
     number of failed tshell elements = 0
 f a i l e d   e l e m e n t   r e p o r t  time=  4.0775E-05
     number of failed solid  elements = 0
     number of failed beam   elements = 0
     number of failed shell  elements = 0
     number of failed tshell elements = 0
 f a i l e d   e l e m e n t   r e p o r t  time=  4.0831E-05
     number of failed solid  elements = 0
     number of failed beam   elements = 0
     number of failed shell  elements = 0
     number of failed tshell elements = 0
 f a i l e d   e l e m e n t   r e p o r t  time=  4.0907E-05
     number of failed solid  elements = 0
     number of failed beam   elements = 0
     number of failed shell  elements = 0
     number of failed tshell elements = 0
 f a i l e d   e l e m e n t   r e p o r t  time=  4.1077E-05
     number of failed solid  elements = 0
     number of failed beam   elements = 0
     number of failed shell  elements = 0
     number of failed tshell elements = 0
 f a i l e d   e l e m e n t   r e p o r t  time=  4.1262E-05
     number of failed solid  elements = 0
     number of failed beam   elements = 0
     number of failed shell  elements = 0
     number of failed tshell elements = 0
 f a i l e d   e l e m e n t   r e p o r t  time=  4.1386E-05
     number of failed solid  elements = 0
     number of failed beam   elements = 0
     number of failed shell  elements = 0
     number of failed tshell elements = 0
 f a i l e d   e l e m e n t   r e p o r t  time=  4.1442E-05
     number of failed solid  elements = 0
     number of failed beam   elements = 0
     number of failed shell  elements = 0
     number of failed tshell elements = 0
 f a i l e d   e l e m e n t   r e p o r t  time=  4.1903E-05
     number of failed solid  elements = 0
     number of failed beam   elements = 0
     number of failed shell  elements = 0
     number of failed tshell elements = 0
 f a i l e d   e l e m e n t   r e p o r t  time=  4.1948E-05
     number of failed solid  elements = 0
     number of failed beam   elements = 0
     number of failed shell  elements = 0
     number of failed tshell elements = 0
 f a i l e d   e l e m e n t   r e p o r t  time=  4.2174E-05
     number of failed solid  elements = 0
     number of failed beam   elements = 0
     number of failed shell  elements = 0
     number of failed tshell elements = 0
 f a i l e d   e l e m e n t   r e p o r t  time=  4.2221E-05
     number of failed solid  elements = 0
     number of failed beam   elements = 0
     number of failed shell  elements = 0
     number of failed tshell elements = 0
 f a i l e d   e l e m e n t   r e p o r t  time=  4.2834E-05
     number of failed solid  elements = 0
     number of failed beam   elements = 0
     number of failed shell  elements = 0
     number of failed tshell elements = 0
 f a i l e d   e l e m e n t   r e p o r t  time=  4.2899E-05
     number of failed solid  elements = 0
     number of failed beam   elements = 0
     number of failed shell  elements = 0
     number of failed tshell elements = 0
 f a i l e d   e l e m e n t   r e p o r t  time=  4.3144E-05
     number of failed solid  elements = 0
     number of failed beam   elements = 0
     number of failed shell  elements = 0
     number of failed tshell elements = 0
 f a i l e d   e l e m e n t   r e p o r t  time=  4.4395E-05
     number of failed solid  elements = 0
     number of failed beam   elements = 0
     number of failed shell  elements = 0
     number of failed tshell elements = 0
 f a i l e d   e l e m e n t   r e p o r t  time=  4.4508E-05
     number of failed solid  elements = 0
     number of failed beam   elements = 0
     number of failed shell  elements = 0
     number of failed tshell elements = 0
 f a i l e d   e l e m e n t   r e p o r t  time=  4.4990E-05
     number of failed solid  elements = 0
     number of failed beam   elements = 0
     number of failed shell  elements = 0
     number of failed tshell elements = 0
 f a i l e d   e l e m e n t   r e p o r t  time=  4.5418E-05
     number of failed solid  elements = 0
     number of failed beam   elements = 0
     number of failed shell  elements = 0
     number of failed tshell elements = 0
 f a i l e d   e l e m e n t   r e p o r t  time=  4.7640E-05
     number of failed solid  elements = 0
     number of failed beam   elements = 0
     number of failed shell  elements = 0
     number of failed tshell elements = 0
 f a i l e d   e l e m e n t   r e p o r t  time=  4.8413E-05
     number of failed solid  elements = 0
     number of failed beam   elements = 0
     number of failed shell  elements = 0
     number of failed tshell elements = 0
 f a i l e d   e l e m e n t   r e p o r t  time=  5.4316E-05
     number of failed solid  elements = 0
     number of failed beam   elements = 0
     number of failed shell  elements = 0
     number of failed tshell elements = 0

 S t o r a g e   a l l o c a t i o n   

 Memory required to complete solution   :     252K
 Additional dynamically allocated memory:      27M
                                   Total:      28M


 P r o c e s s o r   #         2

 T i m i n g   i n f o r m a t i o n
                        CPU(seconds)   %CPU  Clock(seconds) %Clock
  ----------------------------------------------------------------
  Keyword Processing ... 3.7404E-01    0.14     3.7897E-01    0.14
  MPP Decomposition .... 6.3722E-01    0.24     6.9933E-01    0.26
    Init Proc .......... 5.0386E-01    0.19     5.0640E-01    0.19
    Decomposition ...... 3.7955E-02    0.01     4.0792E-02    0.02
    Translation ........ 9.5375E-02    0.04     1.5211E-01    0.06
  Initialization ....... 1.5818E-01    0.06     2.5750E-01    0.10
    Init Proc Phase 1 .. 9.9576E-02    0.04     1.2136E-01    0.05
    Init Proc Phase 2 .. 1.2303E-02    0.00     3.8189E-02    0.01
  Init solver .......... 2.5711E-03    0.00     8.2860E-03    0.00
  Element processing ... 9.9134E+01   37.42     9.9664E+01   37.39
    Solids ............. 9.5239E+01   35.95     9.5736E+01   35.91
    E Other ............ 4.2695E-02    0.02     4.2843E-02    0.02
  Binary databases ..... 4.2518E-01    0.16     4.4749E-01    0.17
  ASCII database ....... 2.0680E+00    0.78     2.0840E+00    0.78
  Contact algorithm .... 5.1455E+01   19.42     5.1716E+01   19.40
    Interf. ID         3 1.3640E+01    5.15     1.3718E+01    5.15
    Interf. ID         2 3.0209E+01   11.40     3.0353E+01   11.39
  Rigid Bodies ......... 7.2293E-02    0.03     7.5500E-02    0.03
  DEM .................. 1.7408E+01    6.57     1.7487E+01    6.56
    DEM self contact ... 1.7020E+01    6.42     1.7099E+01    6.41
  Time step size ....... 5.9461E+01   22.44     5.9729E+01   22.41
  Group force file ..... 2.8468E-02    0.01     3.4139E-02    0.01
  Others ............... 2.8756E+00    1.09     2.9009E+00    1.09
    Force Sharing ...... 2.7200E+00    1.03     2.7316E+00    1.02
  Misc. 1 .............. 1.7803E+01    6.72     1.7908E+01    6.72
    Scale Masses ....... 1.5066E-02    0.01     1.5154E-02    0.01
    Force Constraints .. 1.6094E-02    0.01     1.6069E-02    0.01
    Force to Accel ..... 1.4754E+00    0.56     1.4788E+00    0.55
    Constraint Sharing . 1.8802E-02    0.01     1.8599E-02    0.01
    Update RB nodes .... 2.0777E-02    0.01     2.3385E-02    0.01
  Misc. 2 .............. 1.8215E+00    0.69     1.8323E+00    0.69
  Misc. 3 .............. 1.0653E+01    4.02     1.0769E+01    4.04
  Misc. 4 .............. 5.6638E-01    0.21     5.8171E-01    0.22
    Timestep Init ...... 4.4802E-01    0.17     4.5009E-01    0.17
    Apply Loads ........ 8.1340E-02    0.03     8.8919E-02    0.03
  ----------------------------------------------------------------
  T o t a l s            2.6494E+02  100.00     2.6657E+02  100.00


 A v e r a g e s

 T i m i n g   i n f o r m a t i o n
                        CPU(seconds)   %CPU  Clock(seconds) %Clock
  ----------------------------------------------------------------
  Keyword Processing ... 3.2976E-01    0.13     3.7897E-01    0.14
    KW Reading ......... 1.7418E-02    0.01     2.5754E-02    0.01
    KW Writing ......... 1.0975E-02    0.00     2.3861E-02    0.01
  MPP Decomposition .... 5.6853E-01    0.22     7.0005E-01    0.26
    Init Proc .......... 4.4849E-01    0.17     5.0639E-01    0.19
    Decomposition ...... 3.2406E-02    0.01     4.0831E-02    0.02
    Translation ........ 8.7553E-02    0.03     1.5275E-01    0.06
  Initialization ....... 1.4815E-01    0.06     2.5963E-01    0.10
    Init Proc Phase 1 .. 9.7087E-02    0.04     1.2113E-01    0.05
    Init Proc Phase 2 .. 1.2040E-02    0.00     3.8188E-02    0.01
  Init solver .......... 1.9152E-03    0.00     5.4310E-03    0.00
  Element processing ... 1.0998E+02   41.77     1.1056E+02   41.48
    Solids ............. 1.0570E+02   40.14     1.0623E+02   39.85
    E Other ............ 1.1511E-01    0.04     1.1551E-01    0.04
  Binary databases ..... 4.5580E-01    0.17     4.8110E-01    0.18
  ASCII database ....... 2.4174E+00    0.92     3.8962E+00    1.46
  Contact algorithm .... 5.2359E+01   19.88     5.2632E+01   19.74
    Interf. ID         3 1.3663E+01    5.19     1.3739E+01    5.15
    Interf. ID         2 3.1582E+01   11.99     3.1737E+01   11.91
  Rigid Bodies ......... 1.8923E-01    0.07     1.9276E-01    0.07
  DEM .................. 1.6211E+01    6.16     1.6284E+01    6.11
    DEM self contact ... 1.5740E+01    5.98     1.5813E+01    5.93
  Time step size ....... 4.8129E+01   18.28     4.8337E+01   18.13
  Group force file ..... 4.2575E-02    0.02     5.1534E-02    0.02
  Others ............... 3.0546E+00    1.16     3.1103E+00    1.17
    Force Sharing ...... 2.7044E+00    1.03     2.7148E+00    1.02
  Misc. 1 .............. 1.8001E+01    6.84     1.8112E+01    6.79
    Scale Masses ....... 1.9621E-02    0.01     1.9828E-02    0.01
    Force Constraints .. 2.8844E-02    0.01     2.9054E-02    0.01
    Force to Accel ..... 1.6809E+00    0.64     1.6835E+00    0.63
    Constraint Sharing . 3.1554E-02    0.01     3.1843E-02    0.01
    Update RB nodes .... 3.5595E-02    0.01     3.8375E-02    0.01
  Misc. 2 .............. 3.4083E+00    1.29     3.4240E+00    1.28
  Misc. 3 .............. 7.0440E+00    2.68     7.1464E+00    2.68
  Misc. 4 .............. 9.8101E-01    0.37     9.9729E-01    0.37
    Timestep Init ...... 6.9994E-01    0.27     7.0209E-01    0.26
    Apply Loads ........ 2.2425E-01    0.09     2.3332E-01    0.09
  ----------------------------------------------------------------
  T o t a l s            2.6332E+02  100.00     2.6657E+02  100.00

 Problem time       =    6.0000E-05
 Problem cycle      =     49331
 Total CPU time     =       263 seconds (   0 hours  4 minutes 23 seconds)
 CPU time per zone cycle  =        504.186 nanoseconds
 Clock time per zone cycle=        510.123 nanoseconds

 Parallel execution with      4 MPP proc
 NLQ used/max                64/    64

  C P U   T i m i n g   i n f o r m a t i o n

  Processor   Hostname                              CPU/Avg_CPU  CPU(seconds)
  ---------------------------------------------------------------------------
  #       0   compute-0-0                               0.98205   2.5865E+02
  #       1   compute-0-0                               1.00567   2.6487E+02
  #       2   compute-0-0                               1.00612   2.6499E+02
  #       3   compute-0-0                               1.00616   2.6500E+02
  ---------------------------------------------------------------------------
  T o t a l s                                                     1.0535E+03


 Start time   04/08/2022 11:26:22  
 End time     04/08/2022 11:30:48  
 Elapsed time     266 seconds for   49331 cycles using     4 MPP procs
             (      0 hour   4 minutes 26 seconds)

 N o r m a l    t e r m i n a t i o n                          04/08/22 11:30:48
