      Date: 04/08/2022      Time: 12:49:31  

     ___________________________________________________
     |                                                 |
     |  Livermore Software Technology, LLC             |
     |                                                 |
     |  7374 Las Positas Road                          |
     |  Livermore, CA 94551                            |
     |  Tel: (925) 449-2500  Fax: (925) 449-2507       |
     |  www.lstc.com                                   |
     |_________________________________________________|
     |                                                 |
     |  LS-DYNA, A Program for Nonlinear Dynamic       |
     |  Analysis of Structures in Three Dimensions     |
     |  Version : mpp d R12.0.0   Date: 06/19/2020     |
     |  Revision: 148931          Time: 17:26:40       |
     |                                                 |
     |  Features enabled in this version:              |
     |    Distributed Memory Parallel                  |
     |    CESE CHEMISTRY EM ICFD STOCHASTIC_PARTICLES  |
     |    FFTW (multi-dimensional FFTW Library)        |
     |    ANSYS License (ANSYS202)                     |
     |    BigID  option                                |
     |                                                 |
     |  Licensed to:                                   |
     |  Issued by  : Pascale.SaneGuttin_02092022       |
     |                                                 |
     |  Platform   : Intel-MPI 2018 Xeon64             |
     |  OS Level   : Linux CentOS 6.5 uom              |
     |  Compiler   : Intel Fortran Compiler 16.0 AVX-2 |
     |  Hostname   : compute-0-0                       |
     |  Precision  : Double precision (I8R8)           |
     |  SVN Version: 148978                            |
     |                                                 |
     |  Unauthorized use infringes LST copyrights      |
     |_________________________________________________|


 Input file: DynaOpt.key                                                                     

 The native file format       : 64-bit small endian

 LS-DYNA will perform a structural only analysis 

 allocating  memory to   100000000 d     1985258 hex ownership chunk
 contracting memory to           7 d     1991036 material sort chunk
 expanding   memory to          12 d     2056661 nodal force sharing lists 1
 expanding   memory to          18 d     2037279 mat scratch
 expanding   memory to          19 d     3108701 tied nodes scratch
 expanding   memory to          22 d     3108701 tied node scratch
 contracting memory to          18 d     3108701 nodal rigid body scratch
 expanding   memory to        1298 d     3108701 DES sld2des scratch
 expanding   memory to       19450 d     3108701 DES sld2des scratch
 contracting memory to        2450 d     3108701 DES sld2des scratch
 contracting memory to          18 d     3108701 spring/damper scratch
 contracting memory to           1 d     2098818 Performing Decomposition -- Phase 3
 LS-DYNA keyword deck by LS-PrePost                                      
                         ls-dyna mpp.148931 d           date 06/19/2020
 expanding   memory to        4305 d     2098818 material, node and element data
 expanding   memory to        4399 d     2098837 mat add general damage 0
 expanding   memory to        4459 d     2098837 material added airbag porosity leakage 
 expanding   memory to        4477 d     2098837 material properties
 expanding   memory to        4495 d     2138727 element data for composite material
 expanding   memory to        4510 d     2477392 gradient of damage data
 expanding   memory to       17624 d     2520736 user control for contact interfaces
 contracting memory to       17610 d     2520736 thermal expansion 0
 expanding   memory to       17616 d     2520736 state of charge expansion 0
 expanding   memory to       17618 d     2520736 cross-sectional force definitions 0
 expanding   memory to       27571 d     2520772 temp index array for node sorting
 contracting memory to       17618 d     2520772 just because?
 expanding   memory to       20507 d     2540696 arbitrary element numbering input
 contracting memory to       17638 d    27180867 spc cards
 contracting memory to       17625 d    27180867 d3thdt storage
 expanding   memory to       17626 d    27270030 process element material data
 expanding   memory to       19627 d    27270024 load curve data
 contracting memory to       17633 d    27270024 user_define_loading_set
 expanding   memory to       17833 d    27270024 regularize time history data
 contracting memory to       17637 d    27270024 *DEFINE_ELEMENT_DEATH
 expanding   memory to       17892 d    27251072 contact interfaces
 expanding   memory to       38798 d    27251072 implicit contact 1
 expanding   memory to       61856 d    27251072 implicit contact 2
 contracting memory to       18892 d    27519321 contact segment data 1
 expanding   memory to       71863 d    27770790 contact segment data 3
 expanding   memory to      164439 d    27643375 read contacts, eroding check
 expanding   memory to      253877 d    27643375 eroding neighbors 2
 expanding   memory to      274101 d    27643375 eroding neighbors
 contracting memory to      112311 d    28091363 contact definition
 expanding   memory to      112317 d    28240718 contact history
 expanding   memory to      112371 d    28322922 rigid body
 expanding   memory to      112389 d    28323536 rbe2 scratch
 contracting memory to      112375 d    28386318 contact friction
 expanding   memory to      112465 d    28386324 joints
 expanding   memory to      114525 d    28386324 de sld2des
 expanding   memory to      114565 d    28394991 discrete elements regions
 expanding   memory to      114665 d    28599795 rigid bodies for disp. termination
 
 *** Warning 40859 (SOL+859)
     Cannot find elements of slave segment of interface 2
 deleted segment ID          n1          n2          n3          n4
       1 310640 310640 310640 310640
       2 310642 310642 310642 310642
       3 310645 310645 310645 310645
       4 310647 310647 310647 310647
       5 310655 310655 310655 310655
       6 310658 310658 310658 310658
       7 310659 310659 310659 310659
       8 310661 310661 310661 310661
       9 310666 310666 310666 310666
       10 310669 310669 310669 310669
       11 310682 310682 310682 310682
       12 310684 310684 310684 310684
       13 310692 310692 310692 310692
       14 310695 310695 310695 310695
       15 310696 310696 310696 310696
       16 310698 310698 310698 310698
       17 310702 310702 310702 310702
       18 310705 310705 310705 310705
       19 310720 310720 310720 310720
       20 310722 310722 310722 310722
       21 310729 310729 310729 310729
       22 310732 310732 310732 310732
       23 310733 310733 310733 310733
       24 310735 310735 310735 310735
       25 310738 310738 310738 310738
       26 310740 310740 310740 310740
       27 310743 310743 310743 310743
       28 310752 310752 310752 310752
       29 310758 310758 310758 310758
       30 310760 310760 310760 310760
       31 310768 310768 310768 310768
       32 310771 310771 310771 310771
       33 310772 310772 310772 310772
       34 310773 310773 310773 310773
       35 310776 310776 310776 310776
       36 310778 310778 310778 310778
       37 310781 310781 310781 310781
       38 310790 310790 310790 310790
       39 310795 310795 310795 310795
       40 310797 310797 310797 310797
       41 310805 310805 310805 310805
       42 310808 310808 310808 310808
       43 310809 310809 310809 310809
       44 310810 310810 310810 310810
       45 310813 310813 310813 310813
       46 310815 310815 310815 310815
       47 310818 310818 310818 310818
       48 310827 310827 310827 310827
       49 310828 310828 310828 310828
       50 310834 310834 310834 310834
       51 310836 310836 310836 310836
       52 310842 310842 310842 310842
       53 310845 310845 310845 310845
       54 310846 310846 310846 310846
       55 310848 310848 310848 310848
       56 310851 310851 310851 310851
       57 310853 310853 310853 310853
       58 310856 310856 310856 310856
       59 310865 310865 310865 310865
       60 310870 310870 310870 310870
       61 310872 310872 310872 310872
       62 310880 310880 310880 310880
       63 310883 310883 310883 310883
       64 310884 310884 310884 310884
       65 310886 310886 310886 310886
       66 310889 310889 310889 310889
       67 310891 310891 310891 310891
       68 310894 310894 310894 310894
       69 310903 310903 310903 310903
       70 310907 310907 310907 310907
       71 310910 310910 310910 310910
       72 310915 310915 310915 310915
       73 310920 310920 310920 310920
       74 310924 310924 310924 310924
       75 310926 310926 310926 310926
       76 310929 310929 310929 310929
       77 310931 310931 310931 310931
       78 310934 310934 310934 310934
       79 310943 310943 310943 310943
       80 310947 310947 310947 310947
       81 310949 310949 310949 310949
       82 310951 310951 310951 310951
       83 310959 310959 310959 310959
       84 310963 310963 310963 310963
       85 310965 310965 310965 310965
       86 310968 310968 310968 310968
       87 310970 310970 310970 310970
       88 310973 310973 310973 310973
       89 310982 310982 310982 310982
       90 310987 310987 310987 310987
       91 310994 310994 310994 310994
       92 310998 310998 310998 310998
       93 311000 311000 311000 311000
       94 311003 311003 311003 311003
       95 311005 311005 311005 311005
       96 311007 311007 311007 311007
       97 311016 311016 311016 311016
       98 311017 311017 311017 311017
       99 311018 311018 311018 311018
       100 311022 311022 311022 311022
       101 311027 311027 311027 311027
       102 311029 311029 311029 311029
       103 311032 311032 311032 311032
       104 311036 311036 311036 311036
       105 311038 311038 311038 311038
       106 311041 311041 311041 311041
       107 311043 311043 311043 311043
       108 311046 311046 311046 311046
       109 311055 311055 311055 311055
       110 311058 311058 311058 311058
       111 311060 311060 311060 311060
       112 311063 311063 311063 311063
       113 311069 311069 311069 311069
       114 311071 311071 311071 311071
       115 311075 311075 311075 311075
       116 311077 311077 311077 311077
       117 311080 311080 311080 311080
       118 311082 311082 311082 311082
       119 311085 311085 311085 311085
       120 311094 311094 311094 311094
       121 311099 311099 311099 311099
       122 311101 311101 311101 311101
       123 311104 311104 311104 311104
       124 311109 311109 311109 311109
       125 311113 311113 311113 311113
       126 311115 311115 311115 311115
       127 311118 311118 311118 311118
       128 311120 311120 311120 311120
       129 311123 311123 311123 311123
       130 311131 311131 311131 311131
       131 311132 311132 311132 311132
       132 311136 311136 311136 311136
       133 311139 311139 311139 311139
       134 311144 311144 311144 311144
       135 311147 311147 311147 311147
       136 311151 311151 311151 311151
       137 311153 311153 311153 311153
       138 311156 311156 311156 311156
       139 311158 311158 311158 311158
       140 311161 311161 311161 311161
       141 311163 311163 311163 311163
       142 311170 311170 311170 311170
       143 311172 311172 311172 311172
       144 311176 311176 311176 311176
       145 311178 311178 311178 311178
       146 311183 311183 311183 311183
       147 311186 311186 311186 311186
       148 311191 311191 311191 311191
       149 311192 311192 311192 311192
       150 311195 311195 311195 311195
       151 311197 311197 311197 311197
       152 311200 311200 311200 311200
       153 311202 311202 311202 311202
       154 311209 311209 311209 311209
       155 311211 311211 311211 311211
       156 311214 311214 311214 311214
       157 311219 311219 311219 311219
       158 311221 311221 311221 311221
       159 311224 311224 311224 311224
       160 311228 311228 311228 311228
       161 311230 311230 311230 311230
       162 311233 311233 311233 311233
       163 311235 311235 311235 311235
       164 311238 311238 311238 311238
       165 311240 311240 311240 311240
       166 311247 311247 311247 311247
       167 311253 311253 311253 311253
       168 311255 311255 311255 311255
       169 311260 311260 311260 311260
       170 311263 311263 311263 311263
       171 311270 311270 311270 311270
       172 311272 311272 311272 311272
       173 311275 311275 311275 311275
       174 311277 311277 311277 311277
       175 311284 311284 311284 311284
       176 311287 311287 311287 311287
       177 311289 311289 311289 311289
       178 311294 311294 311294 311294
       179 311297 311297 311297 311297
       180 311306 311306 311306 311306
       181 311308 311308 311308 311308
       182 311311 311311 311311 311311
       183 311313 311313 311313 311313
       184 311320 311320 311320 311320
       185 311321 311321 311321 311321
       186 311325 311325 311325 311325
       187 311330 311330 311330 311330
       188 311333 311333 311333 311333
       189 311342 311342 311342 311342
       190 311344 311344 311344 311344
       191 311347 311347 311347 311347
       192 311349 311349 311349 311349
       193 311356 311356 311356 311356
       194 311357 311357 311357 311357
       195 311360 311360 311360 311360
       196 311362 311362 311362 311362
       197 311367 311367 311367 311367
       198 311371 311371 311371 311371
       199 311379 311379 311379 311379
       200 311381 311381 311381 311381
       201 311384 311384 311384 311384
       202 311386 311386 311386 311386
       203 311393 311393 311393 311393
       204 311396 311396 311396 311396
       205 311400 311400 311400 311400
       206 311404 311404 311404 311404
       207 311408 311408 311408 311408
       208 311416 311416 311416 311416
       209 311418 311418 311418 311418
       210 311421 311421 311421 311421
       211 311423 311423 311423 311423
       212 311430 311430 311430 311430
       213 311433 311433 311433 311433
       214 311435 311435 311435 311435
       215 311448 311448 311448 311448
       216 311452 311452 311452 311452
       217 311454 311454 311454 311454
       218 311457 311457 311457 311457
       219 311459 311459 311459 311459
       220 311466 311466 311466 311466
       221 311470 311470 311470 311470
       222 311472 311472 311472 311472
       223 311481 311481 311481 311481
       224 311489 311489 311489 311489
       225 311491 311491 311491 311491
       226 311494 311494 311494 311494
       227 311496 311496 311496 311496
       228 311503 311503 311503 311503
       229 311504 311504 311504 311504
       230 311508 311508 311508 311508
       231 311511 311511 311511 311511
       232 311513 311513 311513 311513
       233 311519 311519 311519 311519
       234 311527 311527 311527 311527
       235 311529 311529 311529 311529
       236 311532 311532 311532 311532
       237 311534 311534 311534 311534
       238 311541 311541 311541 311541
       239 311545 311545 311545 311545
       240 311547 311547 311547 311547
       241 311548 311548 311548 311548
       242 311556 311556 311556 311556
       243 311564 311564 311564 311564
       244 311568 311568 311568 311568
       245 311570 311570 311570 311570
       246 311577 311577 311577 311577
       247 311581 311581 311581 311581
       248 311583 311583 311583 311583
       249 311584 311584 311584 311584
       250 311596 311596 311596 311596
       251 311600 311600 311600 311600
       252 311605 311605 311605 311605
       253 311607 311607 311607 311607
       254 311614 311614 311614 311614
       255 311618 311618 311618 311618
       256 311621 311621 311621 311621
       257 311623 311623 311623 311623
       258 311630 311630 311630 311630
       259 311638 311638 311638 311638
       260 311643 311643 311643 311643
       261 311645 311645 311645 311645
       262 311652 311652 311652 311652
       263 311653 311653 311653 311653
       264 311656 311656 311656 311656
       265 311658 311658 311658 311658
       266 311667 311667 311667 311667
       267 311675 311675 311675 311675
       268 311680 311680 311680 311680
       269 311682 311682 311682 311682
       270 311689 311689 311689 311689
       271 311690 311690 311690 311690
       272 311692 311692 311692 311692
       273 311693 311693 311693 311693
       274 311695 311695 311695 311695
       275 311703 311703 311703 311703
       276 311711 311711 311711 311711
       277 311716 311716 311716 311716
       278 311718 311718 311718 311718
       279 311725 311725 311725 311725
       280 311729 311729 311729 311729
       281 311731 311731 311731 311731
       282 311733 311733 311733 311733
       283 311734 311734 311734 311734
       284 311746 311746 311746 311746
       285 311750 311750 311750 311750
       286 311755 311755 311755 311755
       287 311757 311757 311757 311757
       288 311764 311764 311764 311764
       289 311768 311768 311768 311768
       290 311769 311769 311769 311769
       291 311771 311771 311771 311771
       292 311773 311773 311773 311773
       293 311774 311774 311774 311774
       294 311782 311782 311782 311782
       295 311789 311789 311789 311789
       296 311794 311794 311794 311794
       297 311796 311796 311796 311796
       298 311803 311803 311803 311803
       299 311806 311806 311806 311806
       300 311808 311808 311808 311808
       301 311810 311810 311810 311810
       302 311811 311811 311811 311811
       303 311812 311812 311812 311812
       304 311819 311819 311819 311819
       305 311827 311827 311827 311827
       306 311832 311832 311832 311832
       307 311834 311834 311834 311834
       308 311838 311838 311838 311838
       309 311841 311841 311841 311841
       310 311845 311845 311845 311845
       311 311847 311847 311847 311847
       312 311850 311850 311850 311850
       313 311858 311858 311858 311858
       314 311866 311866 311866 311866
       315 311871 311871 311871 311871
       316 311873 311873 311873 311873
       317 311877 311877 311877 311877
       318 311880 311880 311880 311880
       319 311881 311881 311881 311881
       320 311883 311883 311883 311883
       321 311885 311885 311885 311885
       322 311886 311886 311886 311886
       323 311898 311898 311898 311898
       324 311902 311902 311902 311902
       325 311907 311907 311907 311907
       326 311909 311909 311909 311909
       327 311913 311913 311913 311913
       328 311916 311916 311916 311916
       329 311918 311918 311918 311918
       330 311920 311920 311920 311920
       331 311922 311922 311922 311922
       332 311924 311924 311924 311924
       333 311925 311925 311925 311925
       334 311933 311933 311933 311933
       335 311941 311941 311941 311941
       336 311946 311946 311946 311946
       337 311948 311948 311948 311948
       338 311952 311952 311952 311952
       339 311955 311955 311955 311955
       340 311956 311956 311956 311956
       341 311957 311957 311957 311957
       342 311958 311958 311958 311958
       343 311960 311960 311960 311960
       344 311963 311963 311963 311963
       345 311965 311965 311965 311965
       346 311966 311966 311966 311966
       347 311974 311974 311974 311974
       348 311982 311982 311982 311982
       349 311987 311987 311987 311987
       350 311989 311989 311989 311989
       351 311993 311993 311993 311993
       352 311996 311996 311996 311996
       353 311998 311998 311998 311998
       354 311999 311999 311999 311999
       355 312002 312002 312002 312002
       356 312004 312004 312004 312004
       357 312005 312005 312005 312005
       358 312013 312013 312013 312013
       359 312021 312021 312021 312021
       360 312026 312026 312026 312026
       361 312028 312028 312028 312028
       362 312032 312032 312032 312032
       363 312035 312035 312035 312035
       364 312037 312037 312037 312037
       365 312040 312040 312040 312040
       366 312042 312042 312042 312042
       367 312043 312043 312043 312043
       368 312051 312051 312051 312051
       369 312059 312059 312059 312059
       370 312064 312064 312064 312064
       371 312066 312066 312066 312066
       372 312070 312070 312070 312070
       373 312073 312073 312073 312073
       374 312076 312076 312076 312076
       375 312078 312078 312078 312078
       376 312079 312079 312079 312079
       377 312087 312087 312087 312087
       378 312095 312095 312095 312095
       379 312100 312100 312100 312100
       380 312102 312102 312102 312102
       381 312106 312106 312106 312106
       382 312109 312109 312109 312109
       383 312110 312110 312110 312110
       384 312111 312111 312111 312111
       385 312113 312113 312113 312113
       386 312114 312114 312114 312114
       387 312115 312115 312115 312115
       388 312123 312123 312123 312123
       389 312130 312130 312130 312130
       390 312135 312135 312135 312135
       391 312137 312137 312137 312137
       392 312141 312141 312141 312141
       393 312144 312144 312144 312144
       394 312146 312146 312146 312146
       395 312148 312148 312148 312148
       396 312150 312150 312150 312150
       397 312151 312151 312151 312151
       398 312159 312159 312159 312159
       399 312167 312167 312167 312167
       400 312172 312172 312172 312172
       401 312174 312174 312174 312174
       402 312178 312178 312178 312178
       403 312181 312181 312181 312181
       404 312182 312182 312182 312182
       405 312183 312183 312183 312183
       406 312184 312184 312184 312184
       407 312186 312186 312186 312186
       408 312188 312188 312188 312188
       409 312189 312189 312189 312189
       410 312197 312197 312197 312197
       411 312205 312205 312205 312205
       412 312210 312210 312210 312210
       413 312212 312212 312212 312212
       414 312216 312216 312216 312216
       415 312219 312219 312219 312219
       416 312222 312222 312222 312222
       417 312224 312224 312224 312224
       418 312226 312226 312226 312226
       419 312234 312234 312234 312234
       420 312242 312242 312242 312242
       421 312246 312246 312246 312246
       422 312247 312247 312247 312247
       423 312249 312249 312249 312249
       424 312253 312253 312253 312253
       425 312256 312256 312256 312256
       426 312257 312257 312257 312257
       427 312259 312259 312259 312259
       428 312262 312262 312262 312262
       429 312270 312270 312270 312270
       430 312278 312278 312278 312278
       431 312282 312282 312282 312282
       432 312283 312283 312283 312283
       433 312285 312285 312285 312285
       434 312289 312289 312289 312289
       435 312292 312292 312292 312292
       436 312294 312294 312294 312294
       437 312296 312296 312296 312296
       438 312299 312299 312299 312299
       439 312307 312307 312307 312307
       440 312315 312315 312315 312315
       441 312319 312319 312319 312319
       442 312320 312320 312320 312320
       443 312322 312322 312322 312322
       444 312326 312326 312326 312326
       445 312329 312329 312329 312329
       446 312332 312332 312332 312332
       447 312333 312333 312333 312333
       448 312335 312335 312335 312335
       449 312338 312338 312338 312338
       450 312346 312346 312346 312346
       451 312354 312354 312354 312354
       452 312358 312358 312358 312358
       453 312359 312359 312359 312359
       454 312361 312361 312361 312361
       455 312365 312365 312365 312365
       456 312368 312368 312368 312368
       457 312369 312369 312369 312369
       458 312370 312370 312370 312370
       459 312371 312371 312371 312371
       460 312374 312374 312374 312374
       461 312376 312376 312376 312376
       462 312384 312384 312384 312384
       463 312392 312392 312392 312392
       464 312396 312396 312396 312396
       465 312397 312397 312397 312397
       466 312399 312399 312399 312399
       467 312403 312403 312403 312403
       468 312406 312406 312406 312406
       469 312409 312409 312409 312409
       470 312411 312411 312411 312411
       471 312414 312414 312414 312414
       472 312421 312421 312421 312421
       473 312429 312429 312429 312429
       474 312433 312433 312433 312433
       475 312434 312434 312434 312434
       476 312436 312436 312436 312436
       477 312440 312440 312440 312440
       478 312443 312443 312443 312443
       479 312444 312444 312444 312444
       480 312446 312446 312446 312446
       481 312449 312449 312449 312449
       482 312455 312455 312455 312455
       483 312464 312464 312464 312464
       484 312468 312468 312468 312468
       485 312469 312469 312469 312469
       486 312471 312471 312471 312471
       487 312475 312475 312475 312475
       488 312478 312478 312478 312478
       489 312481 312481 312481 312481
       490 312483 312483 312483 312483
       491 312488 312488 312488 312488
       492 312499 312499 312499 312499
       493 312503 312503 312503 312503
       494 312504 312504 312504 312504
       495 312506 312506 312506 312506
       496 312510 312510 312510 312510
       497 312513 312513 312513 312513
       498 312518 312518 312518 312518
       499 312521 312521 312521 312521
       500 312527 312527 312527 312527
       501 312537 312537 312537 312537
       502 312541 312541 312541 312541
       503 312542 312542 312542 312542
       504 312544 312544 312544 312544
       505 312548 312548 312548 312548
       506 312551 312551 312551 312551
       507 312552 312552 312552 312552
       508 312554 312554 312554 312554
       509 312557 312557 312557 312557
       510 312562 312562 312562 312562
       511 312570 312570 312570 312570
       512 312574 312574 312574 312574
       513 312575 312575 312575 312575
       514 312577 312577 312577 312577
       515 312581 312581 312581 312581
       516 312584 312584 312584 312584
       517 312585 312585 312585 312585
       518 312586 312586 312586 312586
       519 312589 312589 312589 312589
       520 312591 312591 312591 312591
       521 312592 312592 312592 312592
       522 312597 312597 312597 312597
       523 312607 312607 312607 312607
       524 312611 312611 312611 312611
       525 312612 312612 312612 312612
       526 312614 312614 312614 312614
       527 312618 312618 312618 312618
       528 312620 312620 312620 312620
       529 312624 312624 312624 312624
       530 312627 312627 312627 312627
       531 312630 312630 312630 312630
       532 312631 312631 312631 312631
       533 312635 312635 312635 312635
       534 312645 312645 312645 312645
       535 312649 312649 312649 312649
       536 312650 312650 312650 312650
       537 312652 312652 312652 312652
       538 312656 312656 312656 312656
       539 312658 312658 312658 312658
       540 312660 312660 312660 312660
       541 312662 312662 312662 312662
       542 312665 312665 312665 312665
       543 312666 312666 312666 312666
       544 312669 312669 312669 312669
       545 312671 312671 312671 312671
       546 312681 312681 312681 312681
       547 312685 312685 312685 312685
       548 312686 312686 312686 312686
       549 312688 312688 312688 312688
       550 312692 312692 312692 312692
       551 312694 312694 312694 312694
       552 312695 312695 312695 312695
       553 312698 312698 312698 312698
       554 312700 312700 312700 312700
       555 312703 312703 312703 312703
       556 312704 312704 312704 312704
       557 312705 312705 312705 312705
       558 312707 312707 312707 312707
       559 312718 312718 312718 312718
       560 312722 312722 312722 312722
       561 312723 312723 312723 312723
       562 312725 312725 312725 312725
       563 312729 312729 312729 312729
       564 312731 312731 312731 312731
       565 312732 312732 312732 312732
       566 312735 312735 312735 312735
       567 312738 312738 312738 312738
       568 312739 312739 312739 312739
       569 312741 312741 312741 312741
       570 312742 312742 312742 312742
       571 312744 312744 312744 312744
       572 312753 312753 312753 312753
       573 312757 312757 312757 312757
       574 312758 312758 312758 312758
       575 312760 312760 312760 312760
       576 312764 312764 312764 312764
       577 312767 312767 312767 312767
       578 312770 312770 312770 312770
       579 312773 312773 312773 312773
       580 312774 312774 312774 312774
       581 312775 312775 312775 312775
       582 312777 312777 312777 312777
       583 312779 312779 312779 312779
       584 312788 312788 312788 312788
       585 312792 312792 312792 312792
       586 312793 312793 312793 312793
       587 312795 312795 312795 312795
       588 312799 312799 312799 312799
       589 312802 312802 312802 312802
       590 312807 312807 312807 312807
       591 312810 312810 312810 312810
       592 312811 312811 312811 312811
       593 312813 312813 312813 312813
       594 312814 312814 312814 312814
       595 312816 312816 312816 312816
       596 312825 312825 312825 312825
       597 312829 312829 312829 312829
       598 312830 312830 312830 312830
       599 312832 312832 312832 312832
       600 312836 312836 312836 312836
       601 312839 312839 312839 312839
       602 312843 312843 312843 312843
       603 312846 312846 312846 312846
       604 312847 312847 312847 312847
       605 312849 312849 312849 312849
       606 312850 312850 312850 312850
       607 312852 312852 312852 312852
       608 312861 312861 312861 312861
       609 312862 312862 312862 312862
       610 312866 312866 312866 312866
       611 312867 312867 312867 312867
       612 312869 312869 312869 312869
       613 312873 312873 312873 312873
       614 312876 312876 312876 312876
       615 312881 312881 312881 312881
       616 312882 312882 312882 312882
       617 312884 312884 312884 312884
       618 312885 312885 312885 312885
       619 312887 312887 312887 312887
       620 312896 312896 312896 312896
       621 312897 312897 312897 312897
       622 312901 312901 312901 312901
       623 312902 312902 312902 312902
       624 312904 312904 312904 312904
       625 312908 312908 312908 312908
       626 312911 312911 312911 312911
       627 312913 312913 312913 312913
       628 312914 312914 312914 312914
       629 312916 312916 312916 312916
       630 312921 312921 312921 312921
       631 312922 312922 312922 312922
       632 312924 312924 312924 312924
       633 312925 312925 312925 312925
       634 312927 312927 312927 312927
       635 312936 312936 312936 312936
       636 312937 312937 312937 312937
       637 312941 312941 312941 312941
       638 312942 312942 312942 312942
       639 312944 312944 312944 312944
       640 312948 312948 312948 312948
       641 312951 312951 312951 312951
       642 312953 312953 312953 312953
       643 312958 312958 312958 312958
       644 312960 312960 312960 312960
       645 312961 312961 312961 312961
       646 312963 312963 312963 312963
       647 312972 312972 312972 312972
       648 312973 312973 312973 312973
       649 312977 312977 312977 312977
       650 312978 312978 312978 312978
       651 312980 312980 312980 312980
       652 312984 312984 312984 312984
       653 312987 312987 312987 312987
       654 312990 312990 312990 312990
       655 312994 312994 312994 312994
       656 312995 312995 312995 312995
       657 312997 312997 312997 312997
       658 312998 312998 312998 312998
       659 313000 313000 313000 313000
       660 313009 313009 313009 313009
       661 313010 313010 313010 313010
       662 313014 313014 313014 313014
       663 313015 313015 313015 313015
       664 313017 313017 313017 313017
       665 313021 313021 313021 313021
       666 313024 313024 313024 313024
       667 313025 313025 313025 313025
       668 313032 313032 313032 313032
       669 313033 313033 313033 313033
       670 313035 313035 313035 313035
       671 313036 313036 313036 313036
       672 313038 313038 313038 313038
       673 313047 313047 313047 313047
       674 313048 313048 313048 313048
       675 313052 313052 313052 313052
       676 313053 313053 313053 313053
       677 313057 313057 313057 313057
       678 313059 313059 313059 313059
       679 313062 313062 313062 313062
       680 313067 313067 313067 313067
       681 313068 313068 313068 313068
       682 313069 313069 313069 313069
       683 313072 313072 313072 313072
       684 313074 313074 313074 313074
       685 313083 313083 313083 313083
       686 313084 313084 313084 313084
       687 313088 313088 313088 313088
       688 313089 313089 313089 313089
       689 313091 313091 313091 313091
       690 313095 313095 313095 313095
       691 313098 313098 313098 313098
       692 313101 313101 313101 313101
       693 313106 313106 313106 313106
       694 313107 313107 313107 313107
       695 313109 313109 313109 313109
       696 313110 313110 313110 313110
       697 313120 313120 313120 313120
       698 313121 313121 313121 313121
       699 313125 313125 313125 313125
       700 313126 313126 313126 313126
       701 313128 313128 313128 313128
       702 313132 313132 313132 313132
       703 313135 313135 313135 313135
       704 313136 313136 313136 313136
       705 313142 313142 313142 313142
       706 313143 313143 313143 313143
       707 313145 313145 313145 313145
       708 313146 313146 313146 313146
       709 313148 313148 313148 313148
       710 313157 313157 313157 313157
       711 313158 313158 313158 313158
       712 313162 313162 313162 313162
       713 313163 313163 313163 313163
       714 313165 313165 313165 313165
       715 313169 313169 313169 313169
       716 313172 313172 313172 313172
       717 313178 313178 313178 313178
       718 313179 313179 313179 313179
       719 313181 313181 313181 313181
       720 313182 313182 313182 313182
       721 313191 313191 313191 313191
       722 313192 313192 313192 313192
       723 313196 313196 313196 313196
       724 313197 313197 313197 313197
       725 313199 313199 313199 313199
       726 313203 313203 313203 313203
       727 313206 313206 313206 313206
       728 313211 313211 313211 313211
       729 313212 313212 313212 313212
       730 313214 313214 313214 313214
       731 313217 313217 313217 313217
       732 313226 313226 313226 313226
       733 313227 313227 313227 313227
       734 313231 313231 313231 313231
       735 313232 313232 313232 313232
       736 313234 313234 313234 313234
       737 313238 313238 313238 313238
       738 313241 313241 313241 313241
       739 313252 313252 313252 313252
       740 313253 313253 313253 313253
       741 313256 313256 313256 313256
       742 313257 313257 313257 313257
       743 313266 313266 313266 313266
       744 313267 313267 313267 313267
       745 313271 313271 313271 313271
       746 313272 313272 313272 313272
       747 313274 313274 313274 313274
       748 313278 313278 313278 313278
       749 313281 313281 313281 313281
       750 313283 313283 313283 313283
       751 313288 313288 313288 313288
       752 313289 313289 313289 313289
       753 313292 313292 313292 313292
       754 313294 313294 313294 313294
       755 313303 313303 313303 313303
       756 313304 313304 313304 313304
       757 313308 313308 313308 313308
       758 313309 313309 313309 313309
       759 313311 313311 313311 313311
       760 313315 313315 313315 313315
       761 313318 313318 313318 313318
       762 313324 313324 313324 313324
       763 313325 313325 313325 313325
       764 313327 313327 313327 313327
       765 313330 313330 313330 313330
       766 313339 313339 313339 313339
       767 313340 313340 313340 313340
       768 313344 313344 313344 313344
       769 313345 313345 313345 313345
       770 313347 313347 313347 313347
       771 313351 313351 313351 313351
       772 313354 313354 313354 313354
       773 313357 313357 313357 313357
       774 313361 313361 313361 313361
       775 313362 313362 313362 313362
       776 313363 313363 313363 313363
       777 313366 313366 313366 313366
       778 313375 313375 313375 313375
       779 313376 313376 313376 313376
       780 313380 313380 313380 313380
       781 313381 313381 313381 313381
       782 313383 313383 313383 313383
       783 313387 313387 313387 313387
       784 313390 313390 313390 313390
       785 313392 313392 313392 313392
       786 313396 313396 313396 313396
       787 313397 313397 313397 313397
       788 313399 313399 313399 313399
       789 313402 313402 313402 313402
       790 313411 313411 313411 313411
       791 313412 313412 313412 313412
       792 313416 313416 313416 313416
       793 313417 313417 313417 313417
       794 313419 313419 313419 313419
       795 313422 313422 313422 313422
       796 313425 313425 313425 313425
       797 313427 313427 313427 313427
       798 313429 313429 313429 313429
       799 313433 313433 313433 313433
       800 313434 313434 313434 313434
       801 313436 313436 313436 313436
       802 313439 313439 313439 313439
       803 313448 313448 313448 313448
       804 313449 313449 313449 313449
       805 313453 313453 313453 313453
       806 313454 313454 313454 313454
       807 313456 313456 313456 313456
       808 313460 313460 313460 313460
       809 313463 313463 313463 313463
       810 313464 313464 313464 313464
       811 313468 313468 313468 313468
       812 313469 313469 313469 313469
       813 313471 313471 313471 313471
       814 313474 313474 313474 313474
       815 313483 313483 313483 313483
       816 313484 313484 313484 313484
       817 313488 313488 313488 313488
       818 313489 313489 313489 313489
       819 313491 313491 313491 313491
       820 313495 313495 313495 313495
       821 313498 313498 313498 313498
       822 313499 313499 313499 313499
       823 313501 313501 313501 313501
       824 313502 313502 313502 313502
       825 313507 313507 313507 313507
       826 313508 313508 313508 313508
       827 313510 313510 313510 313510
       828 313513 313513 313513 313513
       829 313522 313522 313522 313522
       830 313523 313523 313523 313523
       831 313527 313527 313527 313527
       832 313528 313528 313528 313528
       833 313530 313530 313530 313530
       834 313534 313534 313534 313534
       835 313537 313537 313537 313537
       836 313538 313538 313538 313538
       837 313541 313541 313541 313541
       838 313545 313545 313545 313545
       839 313546 313546 313546 313546
       840 313548 313548 313548 313548
       841 313551 313551 313551 313551
       842 313560 313560 313560 313560
       843 313561 313561 313561 313561
       844 313565 313565 313565 313565
       845 313566 313566 313566 313566
       846 313568 313568 313568 313568
       847 313572 313572 313572 313572
       848 313575 313575 313575 313575
       849 313576 313576 313576 313576
       850 313579 313579 313579 313579
       851 313581 313581 313581 313581
       852 313585 313585 313585 313585
       853 313586 313586 313586 313586
       854 313588 313588 313588 313588
       855 313591 313591 313591 313591
       856 313600 313600 313600 313600
       857 313601 313601 313601 313601
       858 313605 313605 313605 313605
       859 313606 313606 313606 313606
       860 313608 313608 313608 313608
       861 313612 313612 313612 313612
       862 313615 313615 313615 313615
       863 313618 313618 313618 313618
       864 313619 313619 313619 313619
       865 313623 313623 313623 313623
       866 313625 313625 313625 313625
       867 313628 313628 313628 313628
       868 313635 313635 313635 313635
       869 313636 313636 313636 313636
       870 313640 313640 313640 313640
       871 313641 313641 313641 313641
       872 313643 313643 313643 313643
       873 313647 313647 313647 313647
       874 313650 313650 313650 313650
       875 313654 313654 313654 313654
       876 313659 313659 313659 313659
       877 313661 313661 313661 313661
       878 313664 313664 313664 313664
       879 313665 313665 313665 313665
       880 313672 313672 313672 313672
       881 313673 313673 313673 313673
       882 313677 313677 313677 313677
       883 313678 313678 313678 313678
       884 313680 313680 313680 313680
       885 313684 313684 313684 313684
       886 313687 313687 313687 313687
       887 313693 313693 313693 313693
       888 313698 313698 313698 313698
       889 313700 313700 313700 313700
       890 313703 313703 313703 313703
       891 313704 313704 313704 313704
       892 313711 313711 313711 313711
       893 313712 313712 313712 313712
       894 313716 313716 313716 313716
       895 313717 313717 313717 313717
       896 313719 313719 313719 313719
       897 313723 313723 313723 313723
       898 313726 313726 313726 313726
       899 313732 313732 313732 313732
       900 313734 313734 313734 313734
       901 313739 313739 313739 313739
       902 313741 313741 313741 313741
       903 313744 313744 313744 313744
       904 313745 313745 313745 313745
       905 313752 313752 313752 313752
       906 313753 313753 313753 313753
       907 313757 313757 313757 313757
       908 313758 313758 313758 313758
       909 313760 313760 313760 313760
       910 313764 313764 313764 313764
       911 313767 313767 313767 313767
       912 313771 313771 313771 313771
       913 313772 313772 313772 313772
       914 313777 313777 313777 313777
       915 313779 313779 313779 313779
       916 313782 313782 313782 313782
       917 313783 313783 313783 313783
       918 313791 313791 313791 313791
       919 313792 313792 313792 313792
       920 313796 313796 313796 313796
       921 313797 313797 313797 313797
       922 313799 313799 313799 313799
       923 313803 313803 313803 313803
       924 313806 313806 313806 313806
       925 313812 313812 313812 313812
       926 313817 313817 313817 313817
       927 313819 313819 313819 313819
       928 313822 313822 313822 313822
       929 313823 313823 313823 313823
       930 313831 313831 313831 313831
       931 313832 313832 313832 313832
       932 313836 313836 313836 313836
       933 313837 313837 313837 313837
       934 313839 313839 313839 313839
       935 313843 313843 313843 313843
       936 313846 313846 313846 313846
       937 313851 313851 313851 313851
       938 313856 313856 313856 313856
       939 313858 313858 313858 313858
       940 313861 313861 313861 313861
       941 313862 313862 313862 313862
       942 313870 313870 313870 313870
       943 313871 313871 313871 313871
       944 313875 313875 313875 313875
       945 313876 313876 313876 313876
       946 313878 313878 313878 313878
       947 313882 313882 313882 313882
       948 313885 313885 313885 313885
       949 313887 313887 313887 313887
       950 313892 313892 313892 313892
       951 313894 313894 313894 313894
       952 313899 313899 313899 313899
       953 313901 313901 313901 313901
       954 313904 313904 313904 313904
       955 313905 313905 313905 313905
       956 313913 313913 313913 313913
       957 313914 313914 313914 313914
       958 313919 313919 313919 313919
       959 313921 313921 313921 313921
       960 313925 313925 313925 313925
       961 313928 313928 313928 313928
       962 313931 313931 313931 313931
       963 313932 313932 313932 313932
       964 313937 313937 313937 313937
       965 313939 313939 313939 313939
       966 313942 313942 313942 313942
       967 313943 313943 313943 313943
       968 313951 313951 313951 313951
       969 313952 313952 313952 313952
       970 313957 313957 313957 313957
       971 313959 313959 313959 313959
       972 313963 313963 313963 313963
       973 313966 313966 313966 313966
       974 313968 313968 313968 313968
       975 313969 313969 313969 313969
       976 313971 313971 313971 313971
       977 313972 313972 313972 313972
       978 313977 313977 313977 313977
       979 313979 313979 313979 313979
       980 313982 313982 313982 313982
       981 313983 313983 313983 313983
       982 313991 313991 313991 313991
       983 313992 313992 313992 313992
       984 313997 313997 313997 313997
       985 313999 313999 313999 313999
       986 314003 314003 314003 314003
       987 314006 314006 314006 314006
       988 314010 314010 314010 314010
       989 314015 314015 314015 314015
       990 314017 314017 314017 314017
       991 314020 314020 314020 314020
       992 314021 314021 314021 314021
       993 314029 314029 314029 314029
       994 314030 314030 314030 314030
       995 314036 314036 314036 314036
       996 314040 314040 314040 314040
       997 314043 314043 314043 314043
       998 314048 314048 314048 314048
       999 314053 314053 314053 314053
       1000 314055 314055 314055 314055
       1001 314058 314058 314058 314058
       1002 314059 314059 314059 314059
       1003 314067 314067 314067 314067
       1004 314068 314068 314068 314068
       1005 314075 314075 314075 314075
       1006 314079 314079 314079 314079
       1007 314082 314082 314082 314082
       1008 314083 314083 314083 314083
       1009 314085 314085 314085 314085
       1010 314090 314090 314090 314090
       1011 314092 314092 314092 314092
       1012 314095 314095 314095 314095
       1013 314096 314096 314096 314096
       1014 314104 314104 314104 314104
       1015 314105 314105 314105 314105
       1016 314112 314112 314112 314112
       1017 314116 314116 314116 314116
       1018 314119 314119 314119 314119
       1019 314123 314123 314123 314123
       1020 314124 314124 314124 314124
       1021 314125 314125 314125 314125
       1022 314126 314126 314126 314126
       1023 314131 314131 314131 314131
       1024 314133 314133 314133 314133
       1025 314136 314136 314136 314136
       1026 314137 314137 314137 314137
       1027 314145 314145 314145 314145
       1028 314146 314146 314146 314146
       1029 314153 314153 314153 314153
       1030 314157 314157 314157 314157
       1031 314160 314160 314160 314160
       1032 314161 314161 314161 314161
       1033 314162 314162 314162 314162
       1034 314167 314167 314167 314167
       1035 314169 314169 314169 314169
       1036 314172 314172 314172 314172
       1037 314180 314180 314180 314180
       1038 314181 314181 314181 314181
       1039 314188 314188 314188 314188
       1040 314192 314192 314192 314192
       1041 314195 314195 314195 314195
       1042 314196 314196 314196 314196
       1043 314199 314199 314199 314199
       1044 314204 314204 314204 314204
       1045 314206 314206 314206 314206
       1046 314210 314210 314210 314210
       1047 314218 314218 314218 314218
       1048 314219 314219 314219 314219
       1049 314226 314226 314226 314226
       1050 314230 314230 314230 314230
       1051 314233 314233 314233 314233
       1052 314235 314235 314235 314235
       1053 314236 314236 314236 314236
       1054 314237 314237 314237 314237
       1055 314239 314239 314239 314239
       1056 314243 314243 314243 314243
       1057 314249 314249 314249 314249
       1058 314257 314257 314257 314257
       1059 314258 314258 314258 314258
       1060 314265 314265 314265 314265
       1061 314269 314269 314269 314269
       1062 314272 314272 314272 314272
       1063 314273 314273 314273 314273
       1064 314277 314277 314277 314277
       1065 314278 314278 314278 314278
       1066 314283 314283 314283 314283
       1067 314289 314289 314289 314289
       1068 314297 314297 314297 314297
       1069 314298 314298 314298 314298
       1070 314305 314305 314305 314305
       1071 314309 314309 314309 314309
       1072 314312 314312 314312 314312
       1073 314313 314313 314313 314313
       1074 314315 314315 314315 314315
       1075 314316 314316 314316 314316
       1076 314321 314321 314321 314321
       1077 314327 314327 314327 314327
       1078 314335 314335 314335 314335
       1079 314336 314336 314336 314336
       1080 314343 314343 314343 314343
       1081 314347 314347 314347 314347
       1082 314350 314350 314350 314350
       1083 314351 314351 314351 314351
       1084 314352 314352 314352 314352
       1085 314356 314356 314356 314356
       1086 314359 314359 314359 314359
       1087 314365 314365 314365 314365
       1088 314373 314373 314373 314373
       1089 314374 314374 314374 314374
       1090 314381 314381 314381 314381
       1091 314385 314385 314385 314385
       1092 314388 314388 314388 314388
       1093 314391 314391 314391 314391
       1094 314399 314399 314399 314399
       1095 314405 314405 314405 314405
       1096 314412 314412 314412 314412
       1097 314413 314413 314413 314413
       1098 314420 314420 314420 314420
       1099 314424 314424 314424 314424
       1100 314427 314427 314427 314427
       1101 314429 314429 314429 314429
       1102 314431 314431 314431 314431
       1103 314437 314437 314437 314437
       1104 314443 314443 314443 314443
       1105 314446 314446 314446 314446
       1106 314450 314450 314450 314450
       1107 314451 314451 314451 314451
       1108 314458 314458 314458 314458
       1109 314464 314464 314464 314464
       1110 314465 314465 314465 314465
       1111 314467 314467 314467 314467
       1112 314475 314475 314475 314475
       1113 314481 314481 314481 314481
       1114 314482 314482 314482 314482
       1115 314485 314485 314485 314485
       1116 314489 314489 314489 314489
       1117 314490 314490 314490 314490
       1118 314497 314497 314497 314497
       1119 314503 314503 314503 314503
       1120 314504 314504 314504 314504
       1121 314511 314511 314511 314511
       1122 314516 314516 314516 314516
       1123 314522 314522 314522 314522
       1124 314523 314523 314523 314523
       1125 314526 314526 314526 314526
       1126 314530 314530 314530 314530
       1127 314531 314531 314531 314531
       1128 314538 314538 314538 314538
       1129 314544 314544 314544 314544
       1130 314545 314545 314545 314545
       1131 314548 314548 314548 314548
       1132 314554 314554 314554 314554
       1133 314560 314560 314560 314560
       1134 314561 314561 314561 314561
       1135 314564 314564 314564 314564
       1136 314568 314568 314568 314568
       1137 314569 314569 314569 314569
       1138 314576 314576 314576 314576
       1139 314580 314580 314580 314580
       1140 314583 314583 314583 314583
       1141 314586 314586 314586 314586
       1142 314589 314589 314589 314589
       1143 314595 314595 314595 314595
       1144 314601 314601 314601 314601
       1145 314602 314602 314602 314602
       1146 314605 314605 314605 314605
       1147 314609 314609 314609 314609
       1148 314610 314610 314610 314610
       1149 314617 314617 314617 314617
       1150 314621 314621 314621 314621
       1151 314624 314624 314624 314624
       1152 314626 314626 314626 314626
       1153 314629 314629 314629 314629
       1154 314631 314631 314631 314631
       1155 314637 314637 314637 314637
       1156 314642 314642 314642 314642
       1157 314643 314643 314643 314643
       1158 314646 314646 314646 314646
       1159 314650 314650 314650 314650
       1160 314651 314651 314651 314651
       1161 314658 314658 314658 314658
       1162 314662 314662 314662 314662
       1163 314665 314665 314665 314665
       1164 314668 314668 314668 314668
       1165 314669 314669 314669 314669
       1166 314672 314672 314672 314672
       1167 314678 314678 314678 314678
       1168 314682 314682 314682 314682
       1169 314684 314684 314684 314684
       1170 314685 314685 314685 314685
       1171 314688 314688 314688 314688
       1172 314692 314692 314692 314692
       1173 314693 314693 314693 314693
       1174 314700 314700 314700 314700
       1175 314704 314704 314704 314704
       1176 314707 314707 314707 314707
       1177 314709 314709 314709 314709
       1178 314710 314710 314710 314710
       1179 314713 314713 314713 314713
       1180 314722 314722 314722 314722
       1181 314724 314724 314724 314724
       1182 314725 314725 314725 314725
       1183 314728 314728 314728 314728
       1184 314732 314732 314732 314732
       1185 314733 314733 314733 314733
       1186 314740 314740 314740 314740
       1187 314743 314743 314743 314743
       1188 314744 314744 314744 314744
       1189 314747 314747 314747 314747
       1190 314752 314752 314752 314752
       1191 314753 314753 314753 314753
       1192 314762 314762 314762 314762
       1193 314766 314766 314766 314766
       1194 314767 314767 314767 314767
       1195 314770 314770 314770 314770
       1196 314774 314774 314774 314774
       1197 314775 314775 314775 314775
       1198 314782 314782 314782 314782
       1199 314785 314785 314785 314785
       1200 314786 314786 314786 314786
       1201 314789 314789 314789 314789
       1202 314792 314792 314792 314792
       1203 314793 314793 314793 314793
       1204 314805 314805 314805 314805
       1205 314807 314807 314807 314807
       1206 314808 314808 314808 314808
       1207 314811 314811 314811 314811
       1208 314815 314815 314815 314815
       1209 314816 314816 314816 314816
       1210 314823 314823 314823 314823
       1211 314826 314826 314826 314826
       1212 314827 314827 314827 314827
       1213 314830 314830 314830 314830
       1214 314833 314833 314833 314833
       1215 314846 314846 314846 314846
       1216 314848 314848 314848 314848
       1217 314849 314849 314849 314849
       1218 314852 314852 314852 314852
       1219 314856 314856 314856 314856
       1220 314857 314857 314857 314857
       1221 314864 314864 314864 314864
       1222 314867 314867 314867 314867
       1223 314868 314868 314868 314868
       1224 314871 314871 314871 314871
       1225 314875 314875 314875 314875
       1226 314887 314887 314887 314887
       1227 314889 314889 314889 314889
       1228 314890 314890 314890 314890
       1229 314893 314893 314893 314893
       1230 314897 314897 314897 314897
       1231 314898 314898 314898 314898
       1232 314905 314905 314905 314905
       1233 314908 314908 314908 314908
       1234 314909 314909 314909 314909
       1235 314912 314912 314912 314912
       1236 314915 314915 314915 314915
       1237 314928 314928 314928 314928
       1238 314930 314930 314930 314930
       1239 314933 314933 314933 314933
       1240 314937 314937 314937 314937
       1241 314938 314938 314938 314938
       1242 314945 314945 314945 314945
       1243 314948 314948 314948 314948
       1244 314949 314949 314949 314949
       1245 314952 314952 314952 314952
       1246 314955 314955 314955 314955
       1247 314966 314966 314966 314966
       1248 314969 314969 314969 314969
       1249 314971 314971 314971 314971
       1250 314975 314975 314975 314975
       1251 314976 314976 314976 314976
       1252 314983 314983 314983 314983
       1253 314986 314986 314986 314986
       1254 314987 314987 314987 314987
       1255 314990 314990 314990 314990
       1256 314993 314993 314993 314993
       1257 314994 314994 314994 314994
       1258 314998 314998 314998 314998
       1259 315007 315007 315007 315007
       1260 315008 315008 315008 315008
       1261 315010 315010 315010 315010
       1262 315014 315014 315014 315014
       1263 315015 315015 315015 315015
       1264 315022 315022 315022 315022
       1265 315025 315025 315025 315025
       1266 315026 315026 315026 315026
       1267 315029 315029 315029 315029
       1268 315032 315032 315032 315032
       1269 315034 315034 315034 315034
       1270 315044 315044 315044 315044
       1271 315047 315047 315047 315047
       1272 315048 315048 315048 315048
       1273 315050 315050 315050 315050
       1274 315054 315054 315054 315054
       1275 315055 315055 315055 315055
       1276 315061 315061 315061 315061
       1277 315064 315064 315064 315064
       1278 315065 315065 315065 315065
       1279 315068 315068 315068 315068
       1280 315069 315069 315069 315069
       1281 315070 315070 315070 315070
       1282 315080 315080 315080 315080
       1283 315083 315083 315083 315083
       1284 315084 315084 315084 315084
       1285 315086 315086 315086 315086
       1286 315091 315091 315091 315091
       1287 315094 315094 315094 315094
       1288 315098 315098 315098 315098
       1289 315101 315101 315101 315101
       1290 315102 315102 315102 315102
       1291 315105 315105 315105 315105
       1292 315108 315108 315108 315108
       1293 315109 315109 315109 315109
       1294 315119 315119 315119 315119
       1295 315122 315122 315122 315122
       1296 315123 315123 315123 315123
       1297 315125 315125 315125 315125
       1298 315130 315130 315130 315130
       1299 315133 315133 315133 315133
       1300 315137 315137 315137 315137
       1301 315140 315140 315140 315140
       1302 315141 315141 315141 315141
       1303 315144 315144 315144 315144
       1304 315146 315146 315146 315146
       1305 315147 315147 315147 315147
       1306 315148 315148 315148 315148
       1307 315160 315160 315160 315160
       1308 315161 315161 315161 315161
       1309 315162 315162 315162 315162
       1310 315164 315164 315164 315164
       1311 315169 315169 315169 315169
       1312 315172 315172 315172 315172
       1313 315176 315176 315176 315176
       1314 315179 315179 315179 315179
       1315 315180 315180 315180 315180
       1316 315183 315183 315183 315183
       1317 315184 315184 315184 315184
       1318 315185 315185 315185 315185
       1319 315187 315187 315187 315187
       1320 315188 315188 315188 315188
       1321 315199 315199 315199 315199
       1322 315202 315202 315202 315202
       1323 315203 315203 315203 315203
       1324 315205 315205 315205 315205
       1325 315210 315210 315210 315210
       1326 315213 315213 315213 315213
       1327 315217 315217 315217 315217
       1328 315220 315220 315220 315220
       1329 315221 315221 315221 315221
       1330 315224 315224 315224 315224
       1331 315225 315225 315225 315225
       1332 315226 315226 315226 315226
       1333 315239 315239 315239 315239
       1334 315240 315240 315240 315240
       1335 315241 315241 315241 315241
       1336 315243 315243 315243 315243
       1337 315248 315248 315248 315248
       1338 315251 315251 315251 315251
       1339 315255 315255 315255 315255
       1340 315258 315258 315258 315258
       1341 315259 315259 315259 315259
       1342 315262 315262 315262 315262
       1343 315264 315264 315264 315264
       1344 315265 315265 315265 315265
       1345 315276 315276 315276 315276
       1346 315279 315279 315279 315279
       1347 315280 315280 315280 315280
       1348 315282 315282 315282 315282
       1349 315287 315287 315287 315287
       1350 315290 315290 315290 315290
       1351 315294 315294 315294 315294
       1352 315297 315297 315297 315297
       1353 315298 315298 315298 315298
       1354 315301 315301 315301 315301
       1355 315307 315307 315307 315307
       1356 315308 315308 315308 315308
       1357 315321 315321 315321 315321
       1358 315322 315322 315322 315322
       1359 315323 315323 315323 315323
       1360 315325 315325 315325 315325
       1361 315330 315330 315330 315330
       1362 315333 315333 315333 315333
       1363 315337 315337 315337 315337
       1364 315340 315340 315340 315340
       1365 315341 315341 315341 315341
       1366 315344 315344 315344 315344
       1367 315346 315346 315346 315346
       1368 315347 315347 315347 315347
       1369 315358 315358 315358 315358
       1370 315361 315361 315361 315361
       1371 315362 315362 315362 315362
       1372 315364 315364 315364 315364
       1373 315369 315369 315369 315369
       1374 315372 315372 315372 315372
       1375 315376 315376 315376 315376
       1376 315379 315379 315379 315379
       1377 315380 315380 315380 315380
       1378 315383 315383 315383 315383
       1379 315386 315386 315386 315386
       1380 315389 315389 315389 315389
       1381 315390 315390 315390 315390
       1382 315399 315399 315399 315399
       1383 315402 315402 315402 315402
       1384 315403 315403 315403 315403
       1385 315405 315405 315405 315405
       1386 315410 315410 315410 315410
       1387 315413 315413 315413 315413
       1388 315417 315417 315417 315417
       1389 315420 315420 315420 315420
       1390 315421 315421 315421 315421
       1391 315424 315424 315424 315424
       1392 315426 315426 315426 315426
       1393 315428 315428 315428 315428
       1394 315437 315437 315437 315437
       1395 315440 315440 315440 315440
       1396 315441 315441 315441 315441
       1397 315443 315443 315443 315443
       1398 315448 315448 315448 315448
       1399 315451 315451 315451 315451
       1400 315455 315455 315455 315455
       1401 315458 315458 315458 315458
       1402 315459 315459 315459 315459
       1403 315462 315462 315462 315462
       1404 315463 315463 315463 315463
       1405 315464 315464 315464 315464
       1406 315465 315465 315465 315465
       1407 315475 315475 315475 315475
       1408 315478 315478 315478 315478
       1409 315479 315479 315479 315479
       1410 315481 315481 315481 315481
       1411 315486 315486 315486 315486
       1412 315489 315489 315489 315489
       1413 315493 315493 315493 315493
       1414 315496 315496 315496 315496
       1415 315497 315497 315497 315497
       1416 315500 315500 315500 315500
       1417 315506 315506 315506 315506
       1418 315513 315513 315513 315513
       1419 315514 315514 315514 315514
       1420 315517 315517 315517 315517
       1421 315518 315518 315518 315518
       1422 315520 315520 315520 315520
       1423 315525 315525 315525 315525
       1424 315528 315528 315528 315528
       1425 315532 315532 315532 315532
       1426 315535 315535 315535 315535
       1427 315536 315536 315536 315536
       1428 315539 315539 315539 315539
       1429 315541 315541 315541 315541
       1430 315551 315551 315551 315551
       1431 315552 315552 315552 315552
       1432 315553 315553 315553 315553
       1433 315556 315556 315556 315556
       1434 315557 315557 315557 315557
       1435 315559 315559 315559 315559
       1436 315563 315563 315563 315563
       1437 315566 315566 315566 315566
       1438 315570 315570 315570 315570
       1439 315573 315573 315573 315573
       1440 315574 315574 315574 315574
       1441 315577 315577 315577 315577
       1442 315578 315578 315578 315578
       1443 315582 315582 315582 315582
       1444 315589 315589 315589 315589
       1445 315590 315590 315590 315590
       1446 315591 315591 315591 315591
       1447 315593 315593 315593 315593
       1448 315595 315595 315595 315595
       1449 315597 315597 315597 315597
       1450 315602 315602 315602 315602
       1451 315605 315605 315605 315605
       1452 315609 315609 315609 315609
       1453 315612 315612 315612 315612
       1454 315613 315613 315613 315613
       1455 315616 315616 315616 315616
       1456 315617 315617 315617 315617
       1457 315621 315621 315621 315621
       1458 315623 315623 315623 315623
       1459 315628 315628 315628 315628
       1460 315629 315629 315629 315629
       1461 315630 315630 315630 315630
       1462 315633 315633 315633 315633
       1463 315634 315634 315634 315634
       1464 315636 315636 315636 315636
       1465 315641 315641 315641 315641
       1466 315644 315644 315644 315644
       1467 315648 315648 315648 315648
       1468 315651 315651 315651 315651
       1469 315652 315652 315652 315652
       1470 315655 315655 315655 315655
       1471 315660 315660 315660 315660
       1472 315663 315663 315663 315663
       1473 315667 315667 315667 315667
       1474 315668 315668 315668 315668
       1475 315669 315669 315669 315669
       1476 315672 315672 315672 315672
       1477 315673 315673 315673 315673
       1478 315675 315675 315675 315675
       1479 315680 315680 315680 315680
       1480 315683 315683 315683 315683
       1481 315687 315687 315687 315687
       1482 315690 315690 315690 315690
       1483 315691 315691 315691 315691
       1484 315694 315694 315694 315694
       1485 315698 315698 315698 315698
       1486 315700 315700 315700 315700
       1487 315705 315705 315705 315705
       1488 315706 315706 315706 315706
       1489 315707 315707 315707 315707
       1490 315710 315710 315710 315710
       1491 315711 315711 315711 315711
       1492 315713 315713 315713 315713
       1493 315718 315718 315718 315718
       1494 315721 315721 315721 315721
       1495 315725 315725 315725 315725
       1496 315728 315728 315728 315728
       1497 315729 315729 315729 315729
       1498 315732 315732 315732 315732
       1499 315733 315733 315733 315733
       1500 315738 315738 315738 315738
       1501 315741 315741 315741 315741
       1502 315746 315746 315746 315746
       1503 315747 315747 315747 315747
       1504 315748 315748 315748 315748
       1505 315751 315751 315751 315751
       1506 315752 315752 315752 315752
       1507 315754 315754 315754 315754
       1508 315759 315759 315759 315759
       1509 315762 315762 315762 315762
       1510 315766 315766 315766 315766
       1511 315769 315769 315769 315769
       1512 315770 315770 315770 315770
       1513 315773 315773 315773 315773
       1514 315781 315781 315781 315781
       1515 315786 315786 315786 315786
       1516 315787 315787 315787 315787
       1517 315788 315788 315788 315788
       1518 315791 315791 315791 315791
       1519 315792 315792 315792 315792
       1520 315794 315794 315794 315794
       1521 315799 315799 315799 315799
       1522 315802 315802 315802 315802
       1523 315806 315806 315806 315806
       1524 315809 315809 315809 315809
       1525 315810 315810 315810 315810
       1526 315813 315813 315813 315813
       1527 315814 315814 315814 315814
       1528 315823 315823 315823 315823
       1529 315828 315828 315828 315828
       1530 315829 315829 315829 315829
       1531 315830 315830 315830 315830
       1532 315833 315833 315833 315833
       1533 315834 315834 315834 315834
       1534 315836 315836 315836 315836
       1535 315841 315841 315841 315841
       1536 315844 315844 315844 315844
       1537 315848 315848 315848 315848
       1538 315851 315851 315851 315851
       1539 315852 315852 315852 315852
       1540 315855 315855 315855 315855
       1541 315865 315865 315865 315865
       1542 315870 315870 315870 315870
       1543 315871 315871 315871 315871
       1544 315872 315872 315872 315872
       1545 315875 315875 315875 315875
       1546 315876 315876 315876 315876
       1547 315878 315878 315878 315878
       1548 315883 315883 315883 315883
       1549 315886 315886 315886 315886
       1550 315890 315890 315890 315890
       1551 315893 315893 315893 315893
       1552 315894 315894 315894 315894
       1553 315897 315897 315897 315897
       1554 315905 315905 315905 315905
       1555 315910 315910 315910 315910
       1556 315911 315911 315911 315911
       1557 315912 315912 315912 315912
       1558 315915 315915 315915 315915
       1559 315916 315916 315916 315916
       1560 315918 315918 315918 315918
       1561 315923 315923 315923 315923
       1562 315926 315926 315926 315926
       1563 315930 315930 315930 315930
       1564 315933 315933 315933 315933
       1565 315934 315934 315934 315934
       1566 315937 315937 315937 315937
       1567 315938 315938 315938 315938
       1568 315951 315951 315951 315951
       1569 315956 315956 315956 315956
       1570 315957 315957 315957 315957
       1571 315958 315958 315958 315958
       1572 315961 315961 315961 315961
       1573 315962 315962 315962 315962
       1574 315964 315964 315964 315964
       1575 315969 315969 315969 315969
       1576 315972 315972 315972 315972
       1577 315976 315976 315976 315976
       1578 315979 315979 315979 315979
       1579 315980 315980 315980 315980
       1580 315983 315983 315983 315983
       1581 315984 315984 315984 315984
       1582 315991 315991 315991 315991
       1583 315994 315994 315994 315994
       1584 315996 315996 315996 315996
       1585 315998 315998 315998 315998
       1586 316000 316000 316000 316000
       1587 316001 316001 316001 316001
       1588 316003 316003 316003 316003
       1589 316008 316008 316008 316008
       1590 316011 316011 316011 316011
       1591 316015 316015 316015 316015
       1592 316018 316018 316018 316018
       1593 316019 316019 316019 316019
       1594 316022 316022 316022 316022
       1595 316026 316026 316026 316026
       1596 316030 316030 316030 316030
       1597 316035 316035 316035 316035
       1598 316036 316036 316036 316036
       1599 316037 316037 316037 316037
       1600 316038 316038 316038 316038
       1601 316040 316040 316040 316040
       1602 316042 316042 316042 316042
       1603 316047 316047 316047 316047
       1604 316050 316050 316050 316050
       1605 316054 316054 316054 316054
       1606 316057 316057 316057 316057
       1607 316058 316058 316058 316058
       1608 316061 316061 316061 316061
       1609 316063 316063 316063 316063
       1610 316067 316067 316067 316067
       1611 316070 316070 316070 316070
       1612 316075 316075 316075 316075
       1613 316076 316076 316076 316076
       1614 316077 316077 316077 316077
       1615 316078 316078 316078 316078
       1616 316080 316080 316080 316080
       1617 316081 316081 316081 316081
       1618 316083 316083 316083 316083
       1619 316088 316088 316088 316088
       1620 316091 316091 316091 316091
       1621 316095 316095 316095 316095
       1622 316098 316098 316098 316098
       1623 316099 316099 316099 316099
       1624 316102 316102 316102 316102
       1625 316103 316103 316103 316103
       1626 316112 316112 316112 316112
       1627 316113 316113 316113 316113
       1628 316114 316114 316114 316114
       1629 316115 316115 316115 316115
       1630 316117 316117 316117 316117
       1631 316118 316118 316118 316118
       1632 316120 316120 316120 316120
       1633 316127 316127 316127 316127
       1634 316131 316131 316131 316131
       1635 316134 316134 316134 316134
       1636 316135 316135 316135 316135
       1637 316138 316138 316138 316138
       1638 316139 316139 316139 316139
       1639 316140 316140 316140 316140
       1640 316141 316141 316141 316141
       1641 316145 316145 316145 316145
       1642 316150 316150 316150 316150
       1643 316151 316151 316151 316151
       1644 316152 316152 316152 316152
       1645 316153 316153 316153 316153
       1646 316155 316155 316155 316155
       1647 316156 316156 316156 316156
       1648 316158 316158 316158 316158
       1649 316166 316166 316166 316166
       1650 316170 316170 316170 316170
       1651 316173 316173 316173 316173
       1652 316174 316174 316174 316174
       1653 316177 316177 316177 316177
       1654 316178 316178 316178 316178
       1655 316184 316184 316184 316184
       1656 316189 316189 316189 316189
       1657 316190 316190 316190 316190
       1658 316191 316191 316191 316191
       1659 316192 316192 316192 316192
       1660 316194 316194 316194 316194
       1661 316195 316195 316195 316195
       1662 316197 316197 316197 316197
       1663 316205 316205 316205 316205
       1664 316209 316209 316209 316209
       1665 316212 316212 316212 316212
       1666 316213 316213 316213 316213
       1667 316216 316216 316216 316216
       1668 316217 316217 316217 316217
       1669 316223 316223 316223 316223
       1670 316228 316228 316228 316228
       1671 316229 316229 316229 316229
       1672 316230 316230 316230 316230
       1673 316231 316231 316231 316231
       1674 316232 316232 316232 316232
       1675 316233 316233 316233 316233
       1676 316235 316235 316235 316235
       1677 316242 316242 316242 316242
       1678 316246 316246 316246 316246
       1679 316249 316249 316249 316249
       1680 316250 316250 316250 316250
       1681 316253 316253 316253 316253
       1682 316257 316257 316257 316257
       1683 316258 316258 316258 316258
       1684 316263 316263 316263 316263
       1685 316264 316264 316264 316264
       1686 316265 316265 316265 316265
       1687 316266 316266 316266 316266
       1688 316268 316268 316268 316268
       1689 316269 316269 316269 316269
       1690 316271 316271 316271 316271
       1691 316275 316275 316275 316275
       1692 316279 316279 316279 316279
       1693 316283 316283 316283 316283
       1694 316286 316286 316286 316286
       1695 316287 316287 316287 316287
       1696 316290 316290 316290 316290
       1697 316291 316291 316291 316291
       1698 316293 316293 316293 316293
       1699 316295 316295 316295 316295
       1700 316300 316300 316300 316300
       1701 316301 316301 316301 316301
       1702 316302 316302 316302 316302
       1703 316304 316304 316304 316304
       1704 316305 316305 316305 316305
       1705 316306 316306 316306 316306
       1706 316308 316308 316308 316308
       1707 316312 316312 316312 316312
       1708 316316 316316 316316 316316
       1709 316320 316320 316320 316320
       1710 316323 316323 316323 316323
       1711 316324 316324 316324 316324
       1712 316327 316327 316327 316327
       1713 316329 316329 316329 316329
       1714 316330 316330 316330 316330
       1715 316331 316331 316331 316331
       1716 316332 316332 316332 316332
       1717 316333 316333 316333 316333
       1718 316335 316335 316335 316335
       1719 316340 316340 316340 316340
       1720 316341 316341 316341 316341
       1721 316342 316342 316342 316342
       1722 316344 316344 316344 316344
       1723 316345 316345 316345 316345
       1724 316346 316346 316346 316346
       1725 316348 316348 316348 316348
       1726 316352 316352 316352 316352
       1727 316356 316356 316356 316356
       1728 316360 316360 316360 316360
       1729 316363 316363 316363 316363
       1730 316364 316364 316364 316364
       1731 316367 316367 316367 316367
       1732 316368 316368 316368 316368
       1733 316369 316369 316369 316369
       1734 316371 316371 316371 316371
       1735 316372 316372 316372 316372
       1736 316377 316377 316377 316377
       1737 316378 316378 316378 316378
       1738 316379 316379 316379 316379
       1739 316381 316381 316381 316381
       1740 316382 316382 316382 316382
       1741 316383 316383 316383 316383
       1742 316385 316385 316385 316385
       1743 316389 316389 316389 316389
       1744 316393 316393 316393 316393
       1745 316397 316397 316397 316397
       1746 316400 316400 316400 316400
       1747 316401 316401 316401 316401
       1748 316404 316404 316404 316404
       1749 316405 316405 316405 316405
       1750 316406 316406 316406 316406
       1751 316407 316407 316407 316407
       1752 316408 316408 316408 316408
       1753 316410 316410 316410 316410
       1754 316411 316411 316411 316411
       1755 316416 316416 316416 316416
       1756 316417 316417 316417 316417
       1757 316418 316418 316418 316418
       1758 316420 316420 316420 316420
       1759 316421 316421 316421 316421
       1760 316422 316422 316422 316422
       1761 316424 316424 316424 316424
       1762 316428 316428 316428 316428
       1763 316432 316432 316432 316432
       1764 316436 316436 316436 316436
       1765 316439 316439 316439 316439
       1766 316440 316440 316440 316440
       1767 316443 316443 316443 316443
       1768 316446 316446 316446 316446
       1769 316448 316448 316448 316448
       1770 316449 316449 316449 316449
       1771 316454 316454 316454 316454
       1772 316455 316455 316455 316455
       1773 316456 316456 316456 316456
       1774 316457 316457 316457 316457
       1775 316459 316459 316459 316459
       1776 316460 316460 316460 316460
       1777 316462 316462 316462 316462
       1778 316466 316466 316466 316466
       1779 316470 316470 316470 316470
       1780 316474 316474 316474 316474
       1781 316477 316477 316477 316477
       1782 316478 316478 316478 316478
       1783 316481 316481 316481 316481
       1784 316482 316482 316482 316482
       1785 316485 316485 316485 316485
       1786 316487 316487 316487 316487
       1787 316488 316488 316488 316488
       1788 316493 316493 316493 316493
       1789 316494 316494 316494 316494
       1790 316496 316496 316496 316496
       1791 316497 316497 316497 316497
       1792 316498 316498 316498 316498
       1793 316500 316500 316500 316500
       1794 316504 316504 316504 316504
       1795 316508 316508 316508 316508
       1796 316512 316512 316512 316512
       1797 316515 316515 316515 316515
       1798 316516 316516 316516 316516
       1799 316519 316519 316519 316519
       1800 316520 316520 316520 316520
       1801 316522 316522 316522 316522
       1802 316523 316523 316523 316523
       1803 316528 316528 316528 316528
       1804 316529 316529 316529 316529
       1805 316530 316530 316530 316530
       1806 316532 316532 316532 316532
       1807 316533 316533 316533 316533
       1808 316534 316534 316534 316534
       1809 316536 316536 316536 316536
       1810 316540 316540 316540 316540
       1811 316544 316544 316544 316544
       1812 316548 316548 316548 316548
       1813 316551 316551 316551 316551
       1814 316552 316552 316552 316552
       1815 316558 316558 316558 316558
       1816 316559 316559 316559 316559
       1817 316561 316561 316561 316561
       1818 316563 316563 316563 316563
       1819 316564 316564 316564 316564
       1820 316568 316568 316568 316568
       1821 316569 316569 316569 316569
       1822 316570 316570 316570 316570
       1823 316572 316572 316572 316572
       1824 316573 316573 316573 316573
       1825 316574 316574 316574 316574
       1826 316576 316576 316576 316576
       1827 316580 316580 316580 316580
       1828 316584 316584 316584 316584
       1829 316588 316588 316588 316588
       1830 316591 316591 316591 316591
       1831 316592 316592 316592 316592
       1832 316596 316596 316596 316596
       1833 316598 316598 316598 316598
       1834 316600 316600 316600 316600
       1835 316601 316601 316601 316601
       1836 316606 316606 316606 316606
       1837 316607 316607 316607 316607
       1838 316608 316608 316608 316608
       1839 316610 316610 316610 316610
       1840 316611 316611 316611 316611
       1841 316612 316612 316612 316612
       1842 316614 316614 316614 316614
       1843 316618 316618 316618 316618
       1844 316622 316622 316622 316622
       1845 316626 316626 316626 316626
       1846 316629 316629 316629 316629
       1847 316630 316630 316630 316630
       1848 316636 316636 316636 316636
       1849 316638 316638 316638 316638
       1850 316640 316640 316640 316640
       1851 316641 316641 316641 316641
       1852 316645 316645 316645 316645
       1853 316646 316646 316646 316646
       1854 316647 316647 316647 316647
       1855 316649 316649 316649 316649
       1856 316650 316650 316650 316650
       1857 316651 316651 316651 316651
       1858 316655 316655 316655 316655
       1859 316659 316659 316659 316659
       1860 316663 316663 316663 316663
       1861 316666 316666 316666 316666
       1862 316667 316667 316667 316667
       1863 316671 316671 316671 316671
       1864 316672 316672 316672 316672
       1865 316673 316673 316673 316673
       1866 316675 316675 316675 316675
       1867 316677 316677 316677 316677
       1868 316678 316678 316678 316678
       1869 316680 316680 316680 316680
       1870 316684 316684 316684 316684
       1871 316685 316685 316685 316685
       1872 316686 316686 316686 316686
       1873 316689 316689 316689 316689
       1874 316690 316690 316690 316690
       1875 316694 316694 316694 316694
       1876 316698 316698 316698 316698
       1877 316702 316702 316702 316702
[...]
     number of failed solid  elements = 0
     number of failed beam   elements = 0
     number of failed shell  elements = 0
     number of failed tshell elements = 0
 f a i l e d   e l e m e n t   r e p o r t  time=  3.5543E-05
     number of failed solid  elements = 0
     number of failed beam   elements = 0
     number of failed shell  elements = 0
     number of failed tshell elements = 0
 f a i l e d   e l e m e n t   r e p o r t  time=  3.5602E-05
     number of failed solid  elements = 0
     number of failed beam   elements = 0
     number of failed shell  elements = 0
     number of failed tshell elements = 0
 f a i l e d   e l e m e n t   r e p o r t  time=  3.5606E-05
     number of failed solid  elements = 0
     number of failed beam   elements = 0
     number of failed shell  elements = 0
     number of failed tshell elements = 0
 f a i l e d   e l e m e n t   r e p o r t  time=  3.6317E-05
     number of failed solid  elements = 0
     number of failed beam   elements = 0
     number of failed shell  elements = 0
     number of failed tshell elements = 0
 f a i l e d   e l e m e n t   r e p o r t  time=  3.6436E-05
     number of failed solid  elements = 0
     number of failed beam   elements = 0
     number of failed shell  elements = 0
     number of failed tshell elements = 0
 f a i l e d   e l e m e n t   r e p o r t  time=  3.6525E-05
     number of failed solid  elements = 0
     number of failed beam   elements = 0
     number of failed shell  elements = 0
     number of failed tshell elements = 0
 f a i l e d   e l e m e n t   r e p o r t  time=  3.6809E-05
     number of failed solid  elements = 0
     number of failed beam   elements = 0
     number of failed shell  elements = 0
     number of failed tshell elements = 0
 f a i l e d   e l e m e n t   r e p o r t  time=  3.7759E-05
     number of failed solid  elements = 0
     number of failed beam   elements = 0
     number of failed shell  elements = 0
     number of failed tshell elements = 0
 f a i l e d   e l e m e n t   r e p o r t  time=  3.7928E-05
     number of failed solid  elements = 0
     number of failed beam   elements = 0
     number of failed shell  elements = 0
     number of failed tshell elements = 0
 f a i l e d   e l e m e n t   r e p o r t  time=  3.7994E-05
     number of failed solid  elements = 0
     number of failed beam   elements = 0
     number of failed shell  elements = 0
     number of failed tshell elements = 0
 f a i l e d   e l e m e n t   r e p o r t  time=  3.8088E-05
     number of failed solid  elements = 0
     number of failed beam   elements = 0
     number of failed shell  elements = 0
     number of failed tshell elements = 0
 f a i l e d   e l e m e n t   r e p o r t  time=  3.8293E-05
     number of failed solid  elements = 0
     number of failed beam   elements = 0
     number of failed shell  elements = 0
     number of failed tshell elements = 0
 f a i l e d   e l e m e n t   r e p o r t  time=  3.8328E-05
     number of failed solid  elements = 0
     number of failed beam   elements = 0
     number of failed shell  elements = 0
     number of failed tshell elements = 0
 f a i l e d   e l e m e n t   r e p o r t  time=  3.8382E-05
     number of failed solid  elements = 0
     number of failed beam   elements = 0
     number of failed shell  elements = 0
     number of failed tshell elements = 0
 f a i l e d   e l e m e n t   r e p o r t  time=  3.8735E-05
     number of failed solid  elements = 0
     number of failed beam   elements = 0
     number of failed shell  elements = 0
     number of failed tshell elements = 0
 f a i l e d   e l e m e n t   r e p o r t  time=  3.8954E-05
     number of failed solid  elements = 0
     number of failed beam   elements = 0
     number of failed shell  elements = 0
     number of failed tshell elements = 0
 f a i l e d   e l e m e n t   r e p o r t  time=  3.8963E-05
     number of failed solid  elements = 0
     number of failed beam   elements = 0
     number of failed shell  elements = 0
     number of failed tshell elements = 0
 f a i l e d   e l e m e n t   r e p o r t  time=  3.9024E-05
     number of failed solid  elements = 0
     number of failed beam   elements = 0
     number of failed shell  elements = 0
     number of failed tshell elements = 0
 f a i l e d   e l e m e n t   r e p o r t  time=  3.9299E-05
     number of failed solid  elements = 0
     number of failed beam   elements = 0
     number of failed shell  elements = 0
     number of failed tshell elements = 0
 f a i l e d   e l e m e n t   r e p o r t  time=  3.9334E-05
     number of failed solid  elements = 0
     number of failed beam   elements = 0
     number of failed shell  elements = 0
     number of failed tshell elements = 0
 f a i l e d   e l e m e n t   r e p o r t  time=  3.9467E-05
     number of failed solid  elements = 0
     number of failed beam   elements = 0
     number of failed shell  elements = 0
     number of failed tshell elements = 0
 f a i l e d   e l e m e n t   r e p o r t  time=  3.9554E-05
     number of failed solid  elements = 0
     number of failed beam   elements = 0
     number of failed shell  elements = 0
     number of failed tshell elements = 0
 f a i l e d   e l e m e n t   r e p o r t  time=  3.9583E-05
     number of failed solid  elements = 0
     number of failed beam   elements = 0
     number of failed shell  elements = 0
     number of failed tshell elements = 0
 f a i l e d   e l e m e n t   r e p o r t  time=  3.9692E-05
     number of failed solid  elements = 0
     number of failed beam   elements = 0
     number of failed shell  elements = 0
     number of failed tshell elements = 0
 f a i l e d   e l e m e n t   r e p o r t  time=  3.9991E-05
     number of failed solid  elements = 0
     number of failed beam   elements = 0
     number of failed shell  elements = 0
     number of failed tshell elements = 0
 f a i l e d   e l e m e n t   r e p o r t  time=  4.0027E-05
     number of failed solid  elements = 0
     number of failed beam   elements = 0
     number of failed shell  elements = 0
     number of failed tshell elements = 0
 f a i l e d   e l e m e n t   r e p o r t  time=  4.0289E-05
     number of failed solid  elements = 0
     number of failed beam   elements = 0
     number of failed shell  elements = 0
     number of failed tshell elements = 0
 f a i l e d   e l e m e n t   r e p o r t  time=  4.0515E-05
     number of failed solid  elements = 0
     number of failed beam   elements = 0
     number of failed shell  elements = 0
     number of failed tshell elements = 0
 f a i l e d   e l e m e n t   r e p o r t  time=  4.0546E-05
     number of failed solid  elements = 0
     number of failed beam   elements = 0
     number of failed shell  elements = 0
     number of failed tshell elements = 0
 f a i l e d   e l e m e n t   r e p o r t  time=  4.0611E-05
     number of failed solid  elements = 0
     number of failed beam   elements = 0
     number of failed shell  elements = 0
     number of failed tshell elements = 0
 f a i l e d   e l e m e n t   r e p o r t  time=  4.0821E-05
     number of failed solid  elements = 0
     number of failed beam   elements = 0
     number of failed shell  elements = 0
     number of failed tshell elements = 0
 f a i l e d   e l e m e n t   r e p o r t  time=  4.1020E-05
     number of failed solid  elements = 0
     number of failed beam   elements = 0
     number of failed shell  elements = 0
     number of failed tshell elements = 0
 f a i l e d   e l e m e n t   r e p o r t  time=  4.1025E-05
     number of failed solid  elements = 0
     number of failed beam   elements = 0
     number of failed shell  elements = 0
     number of failed tshell elements = 0
 f a i l e d   e l e m e n t   r e p o r t  time=  4.1037E-05
     number of failed solid  elements = 0
     number of failed beam   elements = 0
     number of failed shell  elements = 0
     number of failed tshell elements = 0
 f a i l e d   e l e m e n t   r e p o r t  time=  4.1175E-05
     number of failed solid  elements = 0
     number of failed beam   elements = 0
     number of failed shell  elements = 0
     number of failed tshell elements = 0
 f a i l e d   e l e m e n t   r e p o r t  time=  4.1253E-05
     number of failed solid  elements = 0
     number of failed beam   elements = 0
     number of failed shell  elements = 0
     number of failed tshell elements = 0
 f a i l e d   e l e m e n t   r e p o r t  time=  4.1304E-05
     number of failed solid  elements = 0
     number of failed beam   elements = 0
     number of failed shell  elements = 0
     number of failed tshell elements = 0
 f a i l e d   e l e m e n t   r e p o r t  time=  4.1850E-05
     number of failed solid  elements = 0
     number of failed beam   elements = 0
     number of failed shell  elements = 0
     number of failed tshell elements = 0
 f a i l e d   e l e m e n t   r e p o r t  time=  4.1923E-05
     number of failed solid  elements = 0
     number of failed beam   elements = 0
     number of failed shell  elements = 0
     number of failed tshell elements = 0
 f a i l e d   e l e m e n t   r e p o r t  time=  4.1966E-05
     number of failed solid  elements = 0
     number of failed beam   elements = 0
     number of failed shell  elements = 0
     number of failed tshell elements = 0
 f a i l e d   e l e m e n t   r e p o r t  time=  4.2354E-05
     number of failed solid  elements = 0
     number of failed beam   elements = 0
     number of failed shell  elements = 0
     number of failed tshell elements = 0
 f a i l e d   e l e m e n t   r e p o r t  time=  4.2661E-05
     number of failed solid  elements = 0
     number of failed beam   elements = 0
     number of failed shell  elements = 0
     number of failed tshell elements = 0
 f a i l e d   e l e m e n t   r e p o r t  time=  4.2746E-05
     number of failed solid  elements = 0
     number of failed beam   elements = 0
     number of failed shell  elements = 0
     number of failed tshell elements = 0
 f a i l e d   e l e m e n t   r e p o r t  time=  4.4372E-05
     number of failed solid  elements = 0
     number of failed beam   elements = 0
     number of failed shell  elements = 0
     number of failed tshell elements = 0
 f a i l e d   e l e m e n t   r e p o r t  time=  4.8355E-05
     number of failed solid  elements = 0
     number of failed beam   elements = 0
     number of failed shell  elements = 0
     number of failed tshell elements = 0
 f a i l e d   e l e m e n t   r e p o r t  time=  4.8458E-05
     number of failed solid  elements = 0
     number of failed beam   elements = 0
     number of failed shell  elements = 0
     number of failed tshell elements = 0
 f a i l e d   e l e m e n t   r e p o r t  time=  4.8585E-05
     number of failed solid  elements = 0
     number of failed beam   elements = 0
     number of failed shell  elements = 0
     number of failed tshell elements = 0
 f a i l e d   e l e m e n t   r e p o r t  time=  4.9686E-05
     number of failed solid  elements = 0
     number of failed beam   elements = 0
     number of failed shell  elements = 0
     number of failed tshell elements = 0
 f a i l e d   e l e m e n t   r e p o r t  time=  5.0847E-05
     number of failed solid  elements = 0
     number of failed beam   elements = 0
     number of failed shell  elements = 0
     number of failed tshell elements = 0
 Element deleted due to damage
     solid element 33865  failed at time  5.3193E-05
 f a i l e d   e l e m e n t   r e p o r t  time=  5.3193E-05
     number of failed solid  elements = 1
     number of failed beam   elements = 0
     number of failed shell  elements = 0
     number of failed tshell elements = 0
 f a i l e d   e l e m e n t   r e p o r t  time=  5.3553E-05
     number of failed solid  elements = 1
     number of failed beam   elements = 0
     number of failed shell  elements = 0
     number of failed tshell elements = 0
 Element deleted due to damage
     solid element 32283  failed at time  5.3681E-05
 f a i l e d   e l e m e n t   r e p o r t  time=  5.3681E-05
     number of failed solid  elements = 2
     number of failed beam   elements = 0
     number of failed shell  elements = 0
     number of failed tshell elements = 0
 Element deleted due to damage
     solid element 31544  failed at time  5.4374E-05
 f a i l e d   e l e m e n t   r e p o r t  time=  5.4374E-05
     number of failed solid  elements = 3
     number of failed beam   elements = 0
     number of failed shell  elements = 0
     number of failed tshell elements = 0
 Element deleted due to damage
     solid element 33717  failed at time  5.5685E-05
 f a i l e d   e l e m e n t   r e p o r t  time=  5.5685E-05
     number of failed solid  elements = 4
     number of failed beam   elements = 0
     number of failed shell  elements = 0
     number of failed tshell elements = 0
 f a i l e d   e l e m e n t   r e p o r t  time=  5.8430E-05
     number of failed solid  elements = 4
     number of failed beam   elements = 0
     number of failed shell  elements = 0
     number of failed tshell elements = 0

 S t o r a g e   a l l o c a t i o n   

 Memory required to complete solution   :     275K
 Additional dynamically allocated memory:      30M
                                   Total:      30M


 P r o c e s s o r   #         2

 T i m i n g   i n f o r m a t i o n
                        CPU(seconds)   %CPU  Clock(seconds) %Clock
  ----------------------------------------------------------------
  Keyword Processing ... 3.0776E-01    0.10     3.0900E-01    0.10
  MPP Decomposition .... 6.5616E-01    0.22     7.0012E-01    0.23
    Init Proc .......... 4.8078E-01    0.16     4.8257E-01    0.16
    Decomposition ...... 6.4047E-02    0.02     6.4288E-02    0.02
    Translation ........ 1.1126E-01    0.04     1.5318E-01    0.05
  Initialization ....... 1.5605E-01    0.05     1.6726E-01    0.06
    Init Proc Phase 1 .. 1.0587E-01    0.04     1.1179E-01    0.04
    Init Proc Phase 2 .. 1.4618E-02    0.00     1.5016E-02    0.00
  Element processing ... 1.2354E+02   41.31     1.2417E+02   41.29
    Solids ............. 1.1782E+02   39.40     1.1841E+02   39.38
    E Other ............ 1.5361E-01    0.05     1.5493E-01    0.05
  Binary databases ..... 5.0537E-01    0.17     5.1006E-01    0.17
  ASCII database ....... 2.0775E+00    0.69     2.0934E+00    0.70
  Contact algorithm .... 6.4064E+01   21.42     6.4384E+01   21.41
    Interf. ID         3 1.5687E+01    5.25     1.5763E+01    5.24
    Interf. ID         2 4.0649E+01   13.59     4.0858E+01   13.59
  Rigid Bodies ......... 3.5303E-01    0.12     3.5394E-01    0.12
  DEM .................. 1.1008E+01    3.68     1.1058E+01    3.68
    DEM self contact ... 1.0313E+01    3.45     1.0364E+01    3.45
  Time step size ....... 5.6093E+01   18.76     5.6347E+01   18.74
  Group force file ..... 7.0099E-02    0.02     8.4341E-02    0.03
  Others ............... 3.1793E+00    1.06     3.2600E+00    1.08
    Force Sharing ...... 2.6300E+00    0.88     2.6387E+00    0.88
  Misc. 1 .............. 2.2503E+01    7.52     2.2625E+01    7.52
    Scale Masses ....... 2.0835E-02    0.01     2.1004E-02    0.01
    Force Constraints .. 4.9261E-02    0.02     4.9610E-02    0.02
    Force to Accel ..... 2.2599E+00    0.76     2.2633E+00    0.75
    Constraint Sharing . 4.7935E-02    0.02     4.8154E-02    0.02
    Update RB nodes .... 4.9932E-02    0.02     5.1607E-02    0.02
  Misc. 2 .............. 5.4901E+00    1.84     5.5046E+00    1.83
  Misc. 3 .............. 7.6030E+00    2.54     7.6736E+00    2.55
  Misc. 4 .............. 1.4603E+00    0.49     1.4681E+00    0.49
    Timestep Init ...... 1.1018E+00    0.37     1.0985E+00    0.37
    Apply Loads ........ 2.9093E-01    0.10     3.0048E-01    0.10
  ----------------------------------------------------------------
  T o t a l s            2.9907E+02  100.00     3.0071E+02  100.00


 A v e r a g e s

 T i m i n g   i n f o r m a t i o n
                        CPU(seconds)   %CPU  Clock(seconds) %Clock
  ----------------------------------------------------------------
  Keyword Processing ... 2.8479E-01    0.10     3.0870E-01    0.10
    KW Reading ......... 1.9721E-02    0.01     2.0043E-02    0.01
    KW Writing ......... 1.1432E-02    0.00     1.9405E-02    0.01
  MPP Decomposition .... 5.9333E-01    0.20     7.0052E-01    0.23
    Init Proc .......... 4.3903E-01    0.15     4.8255E-01    0.16
    Decomposition ...... 5.2936E-02    0.02     6.4324E-02    0.02
    Translation ........ 1.0128E-01    0.03     1.5355E-01    0.05
  Initialization ....... 1.5139E-01    0.05     1.6646E-01    0.06
    Init Proc Phase 1 .. 1.0687E-01    0.04     1.1183E-01    0.04
    Init Proc Phase 2 .. 1.3947E-02    0.00     1.5019E-02    0.00
  Element processing ... 1.3316E+02   44.75     1.3388E+02   44.52
    Solids ............. 1.2782E+02   42.96     1.2850E+02   42.73
    E Other ............ 1.3692E-01    0.05     1.3893E-01    0.05
  Binary databases ..... 4.9681E-01    0.17     5.0379E-01    0.17
  ASCII database ....... 2.3227E+00    0.78     3.7271E+00    1.24
  Contact algorithm .... 6.5189E+01   21.91     6.5519E+01   21.79
    Interf. ID         3 1.6393E+01    5.51     1.6472E+01    5.48
    Interf. ID         2 4.1712E+01   14.02     4.1927E+01   13.94
  Rigid Bodies ......... 2.4383E-01    0.08     2.4427E-01    0.08
  DEM .................. 1.0697E+01    3.60     1.0746E+01    3.57
    DEM self contact ... 1.0037E+01    3.37     1.0086E+01    3.35
  Time step size ....... 4.6486E+01   15.62     4.6684E+01   15.52
  Group force file ..... 5.6227E-02    0.02     6.6425E-02    0.02
  Others ............... 2.9405E+00    0.99     3.0199E+00    1.00
    Force Sharing ...... 2.4897E+00    0.84     2.4972E+00    0.83
  Misc. 1 .............. 2.2101E+01    7.43     2.2225E+01    7.39
    Scale Masses ....... 2.1911E-02    0.01     2.1731E-02    0.01
    Force Constraints .. 3.6577E-02    0.01     3.7244E-02    0.01
    Force to Accel ..... 2.2080E+00    0.74     2.2129E+00    0.74
    Constraint Sharing . 3.9183E-02    0.01     3.9466E-02    0.01
    Update RB nodes .... 4.8398E-02    0.02     4.9943E-02    0.02
  Misc. 2 .............. 5.3143E+00    1.79     5.3320E+00    1.77
  Misc. 3 .............. 6.1026E+00    2.05     6.1662E+00    2.05
  Misc. 4 .............. 1.4151E+00    0.48     1.4228E+00    0.47
    Timestep Init ...... 1.0894E+00    0.37     1.0884E+00    0.36
    Apply Loads ........ 2.5924E-01    0.09     2.6654E-01    0.09
  ----------------------------------------------------------------
  T o t a l s            2.9756E+02  100.00     3.0071E+02  100.00

 Problem time       =    6.0001E-05
 Problem cycle      =     55592
 Total CPU time     =       298 seconds (   0 hours  4 minutes 58 seconds)
 CPU time per zone cycle  =        460.804 nanoseconds
 Clock time per zone cycle=        465.616 nanoseconds

 Parallel execution with      4 MPP proc
 NLQ used/max                64/    64

  C P U   T i m i n g   i n f o r m a t i o n

  Processor   Hostname                              CPU/Avg_CPU  CPU(seconds)
  ---------------------------------------------------------------------------
  #       0   compute-0-0                               0.98487   2.9311E+02
  #       1   compute-0-0                               1.00473   2.9902E+02
  #       2   compute-0-0                               1.00510   2.9913E+02
  #       3   compute-0-0                               1.00530   2.9919E+02
  ---------------------------------------------------------------------------
  T o t a l s                                                     1.1905E+03


 Start time   04/08/2022 12:49:31  
 End time     04/08/2022 12:54:31  
 Elapsed time     300 seconds for   55592 cycles using     4 MPP procs
             (      0 hour   5 minutes  0 second )

 N o r m a l    t e r m i n a t i o n                          04/08/22 12:54:31
