      Date: 04/08/2022      Time: 12:49:31  

     ___________________________________________________
     |                                                 |
     |  Livermore Software Technology, LLC             |
     |                                                 |
     |  7374 Las Positas Road                          |
     |  Livermore, CA 94551                            |
     |  Tel: (925) 449-2500  Fax: (925) 449-2507       |
     |  www.lstc.com                                   |
     |_________________________________________________|
     |                                                 |
     |  LS-DYNA, A Program for Nonlinear Dynamic       |
     |  Analysis of Structures in Three Dimensions     |
     |  Version : mpp d R12.0.0   Date: 06/19/2020     |
     |  Revision: 148931          Time: 17:26:40       |
     |                                                 |
     |  Features enabled in this version:              |
     |    Distributed Memory Parallel                  |
     |    CESE CHEMISTRY EM ICFD STOCHASTIC_PARTICLES  |
     |    FFTW (multi-dimensional FFTW Library)        |
     |    ANSYS License (ANSYS202)                     |
     |    BigID  option                                |
     |                                                 |
     |  Licensed to:                                   |
     |  Issued by  : Pascale.SaneGuttin_02092022       |
     |                                                 |
     |  Platform   : Intel-MPI 2018 Xeon64             |
     |  OS Level   : Linux CentOS 6.5 uom              |
     |  Compiler   : Intel Fortran Compiler 16.0 AVX-2 |
     |  Hostname   : compute-0-0                       |
     |  Precision  : Double precision (I8R8)           |
     |  SVN Version: 148978                            |
     |                                                 |
     |  Unauthorized use infringes LST copyrights      |
     |_________________________________________________|


 Input file: DynaOpt.key                                                                     

 The native file format       : 64-bit small endian

 LS-DYNA will perform a structural only analysis 

 allocating  memory to   100000000 d     1985258 hex ownership chunk
 contracting memory to           7 d     1991034 material sort chunk
 expanding   memory to          12 d     2056649 nodal force sharing lists 1
 expanding   memory to          18 d     2037281 mat scratch
 expanding   memory to          19 d     3108698 tied nodes scratch
 expanding   memory to          22 d     3108698 tied node scratch
 contracting memory to          18 d     3108698 nodal rigid body scratch
 expanding   memory to        1298 d     3108698 DES sld2des scratch
 expanding   memory to       19450 d     3108698 DES sld2des scratch
 contracting memory to        2450 d     3108698 DES sld2des scratch
 contracting memory to          18 d     3108698 spring/damper scratch
 contracting memory to           1 d     2098814 Performing Decomposition -- Phase 3
 LS-DYNA keyword deck by LS-PrePost                                      
                         ls-dyna mpp.148931 d           date 06/19/2020
 expanding   memory to        4305 d     2098814 material, node and element data
 expanding   memory to        4399 d     2098833 mat add general damage 0
 expanding   memory to        4459 d     2098833 material added airbag porosity leakage 
 expanding   memory to        4477 d     2098833 material properties
 expanding   memory to        4495 d     2138712 element data for composite material
 expanding   memory to        4510 d     2477345 gradient of damage data
 expanding   memory to       17620 d     2520674 user control for contact interfaces
 contracting memory to       17606 d     2520674 thermal expansion 0
 expanding   memory to       17612 d     2520674 state of charge expansion 0
 expanding   memory to       17614 d     2520674 cross-sectional force definitions 0
 expanding   memory to       27566 d     2520710 temp index array for node sorting
 contracting memory to       17614 d     2520710 just because?
 expanding   memory to       20502 d     2540632 arbitrary element numbering input
 contracting memory to       17634 d    27180388 spc cards
 contracting memory to       17621 d    27180388 d3thdt storage
 expanding   memory to       17622 d    27269496 process element material data
 expanding   memory to       19623 d    27269490 load curve data
 contracting memory to       17629 d    27269490 user_define_loading_set
 expanding   memory to       17829 d    27269490 regularize time history data
 contracting memory to       17633 d    27269490 *DEFINE_ELEMENT_DEATH
 expanding   memory to       17888 d    27250535 contact interfaces
 expanding   memory to       38792 d    27250535 implicit contact 1
 expanding   memory to       61844 d    27250535 implicit contact 2
 contracting memory to       18888 d    27518706 contact segment data 1
 expanding   memory to       71848 d    27770154 contact segment data 3
 expanding   memory to      164424 d    27642788 read contacts, eroding check
 expanding   memory to      253799 d    27642788 eroding neighbors 2
 expanding   memory to      274016 d    27642788 eroding neighbors
 contracting memory to      112282 d    28090735 contact definition
 expanding   memory to      112288 d    28240075 contact history
 expanding   memory to      112342 d    28322276 rigid body
 expanding   memory to      112360 d    28322890 rbe2 scratch
 contracting memory to      112346 d    28385672 contact friction
 expanding   memory to      112436 d    28385678 joints
 expanding   memory to      114496 d    28385678 de sld2des
 expanding   memory to      114536 d    28394342 discrete elements regions
 expanding   memory to      114636 d    28599134 rigid bodies for disp. termination
 
 *** Warning 40859 (SOL+859)
     Cannot find elements of slave segment of interface 2
 deleted segment ID          n1          n2          n3          n4
       1 310643 310643 310643 310643
       2 310649 310649 310649 310649
       3 310651 310651 310651 310651
       4 310652 310652 310652 310652
       5 310653 310653 310653 310653
       6 310662 310662 310662 310662
       7 310663 310663 310663 310663
       8 310668 310668 310668 310668
       9 310670 310670 310670 310670
       10 310677 310677 310677 310677
       11 310679 310679 310679 310679
       12 310680 310680 310680 310680
       13 310686 310686 310686 310686
       14 310688 310688 310688 310688
       15 310689 310689 310689 310689
       16 310690 310690 310690 310690
       17 310699 310699 310699 310699
       18 310700 310700 310700 310700
       19 310704 310704 310704 310704
       20 310706 310706 310706 310706
       21 310713 310713 310713 310713
       22 310716 310716 310716 310716
       23 310717 310717 310717 310717
       24 310719 310719 310719 310719
       25 310724 310724 310724 310724
       26 310725 310725 310725 310725
       27 310726 310726 310726 310726
       28 310727 310727 310727 310727
       29 310736 310736 310736 310736
       30 310737 310737 310737 310737
       31 310742 310742 310742 310742
       32 310744 310744 310744 310744
       33 310751 310751 310751 310751
       34 310754 310754 310754 310754
       35 310755 310755 310755 310755
       36 310756 310756 310756 310756
       37 310762 310762 310762 310762
       38 310764 310764 310764 310764
       39 310765 310765 310765 310765
       40 310766 310766 310766 310766
       41 310774 310774 310774 310774
       42 310775 310775 310775 310775
       43 310780 310780 310780 310780
       44 310782 310782 310782 310782
       45 310789 310789 310789 310789
       46 310791 310791 310791 310791
       47 310792 310792 310792 310792
       48 310793 310793 310793 310793
       49 310799 310799 310799 310799
       50 310801 310801 310801 310801
       51 310802 310802 310802 310802
       52 310803 310803 310803 310803
       53 310811 310811 310811 310811
       54 310812 310812 310812 310812
       55 310817 310817 310817 310817
       56 310819 310819 310819 310819
       57 310826 310826 310826 310826
       58 310829 310829 310829 310829
       59 310830 310830 310830 310830
       60 310831 310831 310831 310831
       61 310832 310832 310832 310832
       62 310838 310838 310838 310838
       63 310839 310839 310839 310839
       64 310840 310840 310840 310840
       65 310849 310849 310849 310849
       66 310850 310850 310850 310850
       67 310855 310855 310855 310855
       68 310857 310857 310857 310857
       69 310864 310864 310864 310864
       70 310866 310866 310866 310866
       71 310867 310867 310867 310867
       72 310869 310869 310869 310869
       73 310874 310874 310874 310874
       74 310876 310876 310876 310876
       75 310877 310877 310877 310877
       76 310878 310878 310878 310878
       77 310887 310887 310887 310887
       78 310888 310888 310888 310888
       79 310893 310893 310893 310893
       80 310895 310895 310895 310895
       81 310902 310902 310902 310902
       82 310904 310904 310904 310904
       83 310905 310905 310905 310905
       84 310906 310906 310906 310906
       85 310908 310908 310908 310908
       86 310914 310914 310914 310914
       87 310916 310916 310916 310916
       88 310917 310917 310917 310917
       89 310918 310918 310918 310918
       90 310923 310923 310923 310923
       91 310927 310927 310927 310927
       92 310928 310928 310928 310928
       93 310933 310933 310933 310933
       94 310935 310935 310935 310935
       95 310939 310939 310939 310939
       96 310942 310942 310942 310942
       97 310944 310944 310944 310944
       98 310948 310948 310948 310948
       99 310953 310953 310953 310953
       100 310955 310955 310955 310955
       101 310956 310956 310956 310956
       102 310957 310957 310957 310957
       103 310962 310962 310962 310962
       104 310966 310966 310966 310966
       105 310967 310967 310967 310967
       106 310972 310972 310972 310972
       107 310974 310974 310974 310974
       108 310978 310978 310978 310978
       109 310981 310981 310981 310981
       110 310983 310983 310983 310983
       111 310984 310984 310984 310984
       112 310989 310989 310989 310989
       113 310991 310991 310991 310991
       114 310992 310992 310992 310992
       115 310997 310997 310997 310997
       116 311001 311001 311001 311001
       117 311002 311002 311002 311002
       118 311008 311008 311008 311008
       119 311012 311012 311012 311012
       120 311015 311015 311015 311015
       121 311019 311019 311019 311019
       122 311020 311020 311020 311020
       123 311026 311026 311026 311026
       124 311028 311028 311028 311028
       125 311030 311030 311030 311030
       126 311035 311035 311035 311035
       127 311039 311039 311039 311039
       128 311040 311040 311040 311040
       129 311047 311047 311047 311047
       130 311051 311051 311051 311051
       131 311054 311054 311054 311054
       132 311059 311059 311059 311059
       133 311065 311065 311065 311065
       134 311067 311067 311067 311067
       135 311074 311074 311074 311074
       136 311076 311076 311076 311076
       137 311078 311078 311078 311078
       138 311079 311079 311079 311079
       139 311086 311086 311086 311086
       140 311090 311090 311090 311090
       141 311093 311093 311093 311093
       142 311095 311095 311095 311095
       143 311096 311096 311096 311096
       144 311098 311098 311098 311098
       145 311103 311103 311103 311103
       146 311105 311105 311105 311105
       147 311107 311107 311107 311107
       148 311112 311112 311112 311112
       149 311116 311116 311116 311116
       150 311117 311117 311117 311117
       151 311124 311124 311124 311124
       152 311127 311127 311127 311127
       153 311130 311130 311130 311130
       154 311134 311134 311134 311134
       155 311135 311135 311135 311135
       156 311141 311141 311141 311141
       157 311143 311143 311143 311143
       158 311145 311145 311145 311145
       159 311150 311150 311150 311150
       160 311154 311154 311154 311154
       161 311155 311155 311155 311155
       162 311162 311162 311162 311162
       163 311166 311166 311166 311166
       164 311169 311169 311169 311169
       165 311171 311171 311171 311171
       166 311173 311173 311173 311173
       167 311174 311174 311174 311174
       168 311180 311180 311180 311180
       169 311182 311182 311182 311182
       170 311184 311184 311184 311184
       171 311189 311189 311189 311189
       172 311193 311193 311193 311193
       173 311194 311194 311194 311194
       174 311201 311201 311201 311201
       175 311205 311205 311205 311205
       176 311208 311208 311208 311208
       177 311212 311212 311212 311212
       178 311218 311218 311218 311218
       179 311220 311220 311220 311220
       180 311222 311222 311222 311222
       181 311227 311227 311227 311227
       182 311231 311231 311231 311231
       183 311232 311232 311232 311232
       184 311239 311239 311239 311239
       185 311243 311243 311243 311243
       186 311246 311246 311246 311246
       187 311250 311250 311250 311250
       188 311252 311252 311252 311252
       189 311257 311257 311257 311257
       190 311259 311259 311259 311259
       191 311261 311261 311261 311261
       192 311266 311266 311266 311266
       193 311268 311268 311268 311268
       194 311269 311269 311269 311269
       195 311276 311276 311276 311276
       196 311280 311280 311280 311280
       197 311283 311283 311283 311283
       198 311285 311285 311285 311285
       199 311291 311291 311291 311291
       200 311293 311293 311293 311293
       201 311295 311295 311295 311295
       202 311300 311300 311300 311300
       203 311303 311303 311303 311303
       204 311304 311304 311304 311304
       205 311305 311305 311305 311305
       206 311312 311312 311312 311312
       207 311316 311316 311316 311316
       208 311319 311319 311319 311319
       209 311322 311322 311322 311322
       210 311327 311327 311327 311327
       211 311329 311329 311329 311329
       212 311331 311331 311331 311331
       213 311336 311336 311336 311336
       214 311339 311339 311339 311339
       215 311340 311340 311340 311340
       216 311341 311341 311341 311341
       217 311348 311348 311348 311348
       218 311352 311352 311352 311352
       219 311355 311355 311355 311355
       220 311364 311364 311364 311364
       221 311366 311366 311366 311366
       222 311368 311368 311368 311368
       223 311373 311373 311373 311373
       224 311376 311376 311376 311376
       225 311377 311377 311377 311377
       226 311378 311378 311378 311378
       227 311385 311385 311385 311385
       228 311389 311389 311389 311389
       229 311392 311392 311392 311392
       230 311402 311402 311402 311402
       231 311403 311403 311403 311403
       232 311405 311405 311405 311405
       233 311410 311410 311410 311410
       234 311413 311413 311413 311413
       235 311414 311414 311414 311414
       236 311415 311415 311415 311415
       237 311422 311422 311422 311422
       238 311426 311426 311426 311426
       239 311429 311429 311429 311429
       240 311431 311431 311431 311431
       241 311437 311437 311437 311437
       242 311439 311439 311439 311439
       243 311441 311441 311441 311441
       244 311446 311446 311446 311446
       245 311449 311449 311449 311449
       246 311450 311450 311450 311450
       247 311451 311451 311451 311451
       248 311458 311458 311458 311458
       249 311462 311462 311462 311462
       250 311465 311465 311465 311465
       251 311468 311468 311468 311468
       252 311474 311474 311474 311474
       253 311476 311476 311476 311476
       254 311478 311478 311478 311478
       255 311483 311483 311483 311483
       256 311486 311486 311486 311486
       257 311487 311487 311487 311487
       258 311488 311488 311488 311488
       259 311495 311495 311495 311495
       260 311499 311499 311499 311499
       261 311502 311502 311502 311502
       262 311506 311506 311506 311506
       263 311512 311512 311512 311512
       264 311516 311516 311516 311516
       265 311521 311521 311521 311521
       266 311524 311524 311524 311524
       267 311525 311525 311525 311525
       268 311526 311526 311526 311526
       269 311533 311533 311533 311533
       270 311537 311537 311537 311537
       271 311540 311540 311540 311540
       272 311543 311543 311543 311543
       273 311549 311549 311549 311549
       274 311553 311553 311553 311553
       275 311558 311558 311558 311558
       276 311561 311561 311561 311561
       277 311562 311562 311562 311562
       278 311563 311563 311563 311563
       279 311569 311569 311569 311569
       280 311573 311573 311573 311573
       281 311576 311576 311576 311576
       282 311579 311579 311579 311579
       283 311585 311585 311585 311585
       284 311589 311589 311589 311589
       285 311594 311594 311594 311594
       286 311597 311597 311597 311597
       287 311598 311598 311598 311598
       288 311599 311599 311599 311599
       289 311602 311602 311602 311602
       290 311606 311606 311606 311606
       291 311610 311610 311610 311610
       292 311613 311613 311613 311613
       293 311624 311624 311624 311624
       294 311628 311628 311628 311628
       295 311632 311632 311632 311632
       296 311635 311635 311635 311635
       297 311636 311636 311636 311636
       298 311637 311637 311637 311637
       299 311640 311640 311640 311640
       300 311644 311644 311644 311644
       301 311648 311648 311648 311648
       302 311651 311651 311651 311651
       303 311660 311660 311660 311660
       304 311664 311664 311664 311664
       305 311669 311669 311669 311669
       306 311672 311672 311672 311672
       307 311673 311673 311673 311673
       308 311674 311674 311674 311674
       309 311677 311677 311677 311677
       310 311681 311681 311681 311681
       311 311685 311685 311685 311685
       312 311688 311688 311688 311688
       313 311696 311696 311696 311696
       314 311700 311700 311700 311700
       315 311705 311705 311705 311705
       316 311708 311708 311708 311708
       317 311709 311709 311709 311709
       318 311710 311710 311710 311710
       319 311713 311713 311713 311713
       320 311717 311717 311717 311717
       321 311721 311721 311721 311721
       322 311724 311724 311724 311724
       323 311728 311728 311728 311728
       324 311735 311735 311735 311735
       325 311739 311739 311739 311739
       326 311744 311744 311744 311744
       327 311747 311747 311747 311747
       328 311748 311748 311748 311748
       329 311749 311749 311749 311749
       330 311752 311752 311752 311752
       331 311756 311756 311756 311756
       332 311760 311760 311760 311760
       333 311763 311763 311763 311763
       334 311765 311765 311765 311765
       335 311775 311775 311775 311775
       336 311779 311779 311779 311779
       337 311784 311784 311784 311784
       338 311787 311787 311787 311787
       339 311788 311788 311788 311788
       340 311791 311791 311791 311791
       341 311795 311795 311795 311795
       342 311799 311799 311799 311799
       343 311802 311802 311802 311802
       344 311804 311804 311804 311804
       345 311813 311813 311813 311813
       346 311816 311816 311816 311816
       347 311821 311821 311821 311821
       348 311824 311824 311824 311824
       349 311825 311825 311825 311825
       350 311826 311826 311826 311826
       351 311829 311829 311829 311829
       352 311833 311833 311833 311833
       353 311837 311837 311837 311837
       354 311840 311840 311840 311840
       355 311851 311851 311851 311851
       356 311855 311855 311855 311855
       357 311860 311860 311860 311860
       358 311863 311863 311863 311863
       359 311864 311864 311864 311864
       360 311865 311865 311865 311865
       361 311868 311868 311868 311868
       362 311872 311872 311872 311872
       363 311876 311876 311876 311876
       364 311879 311879 311879 311879
       365 311887 311887 311887 311887
       366 311891 311891 311891 311891
       367 311896 311896 311896 311896
       368 311899 311899 311899 311899
       369 311900 311900 311900 311900
       370 311901 311901 311901 311901
       371 311908 311908 311908 311908
       372 311912 311912 311912 311912
       373 311915 311915 311915 311915
       374 311926 311926 311926 311926
       375 311930 311930 311930 311930
       376 311935 311935 311935 311935
       377 311938 311938 311938 311938
       378 311939 311939 311939 311939
       379 311940 311940 311940 311940
       380 311947 311947 311947 311947
       381 311951 311951 311951 311951
       382 311954 311954 311954 311954
       383 311959 311959 311959 311959
       384 311967 311967 311967 311967
       385 311971 311971 311971 311971
       386 311976 311976 311976 311976
       387 311979 311979 311979 311979
       388 311980 311980 311980 311980
       389 311981 311981 311981 311981
       390 311988 311988 311988 311988
       391 311992 311992 311992 311992
       392 311995 311995 311995 311995
       393 312006 312006 312006 312006
       394 312012 312012 312012 312012
       395 312015 312015 312015 312015
       396 312018 312018 312018 312018
       397 312019 312019 312019 312019
       398 312020 312020 312020 312020
       399 312027 312027 312027 312027
       400 312031 312031 312031 312031
       401 312034 312034 312034 312034
       402 312044 312044 312044 312044
       403 312048 312048 312048 312048
       404 312053 312053 312053 312053
       405 312056 312056 312056 312056
       406 312057 312057 312057 312057
       407 312058 312058 312058 312058
       408 312065 312065 312065 312065
       409 312069 312069 312069 312069
       410 312072 312072 312072 312072
       411 312080 312080 312080 312080
       412 312084 312084 312084 312084
       413 312089 312089 312089 312089
       414 312092 312092 312092 312092
       415 312093 312093 312093 312093
       416 312094 312094 312094 312094
       417 312101 312101 312101 312101
       418 312105 312105 312105 312105
       419 312108 312108 312108 312108
       420 312116 312116 312116 312116
       421 312120 312120 312120 312120
       422 312125 312125 312125 312125
       423 312127 312127 312127 312127
       424 312128 312128 312128 312128
       425 312129 312129 312129 312129
       426 312136 312136 312136 312136
       427 312140 312140 312140 312140
       428 312143 312143 312143 312143
       429 312145 312145 312145 312145
       430 312152 312152 312152 312152
       431 312156 312156 312156 312156
       432 312160 312160 312160 312160
       433 312161 312161 312161 312161
       434 312162 312162 312162 312162
       435 312164 312164 312164 312164
       436 312165 312165 312165 312165
       437 312166 312166 312166 312166
       438 312173 312173 312173 312173
       439 312177 312177 312177 312177
       440 312180 312180 312180 312180
       441 312190 312190 312190 312190
       442 312194 312194 312194 312194
       443 312198 312198 312198 312198
       444 312199 312199 312199 312199
       445 312200 312200 312200 312200
       446 312202 312202 312202 312202
       447 312203 312203 312203 312203
       448 312204 312204 312204 312204
       449 312211 312211 312211 312211
       450 312215 312215 312215 312215
       451 312218 312218 312218 312218
       452 312220 312220 312220 312220
       453 312221 312221 312221 312221
       454 312227 312227 312227 312227
       455 312231 312231 312231 312231
       456 312235 312235 312235 312235
       457 312236 312236 312236 312236
       458 312237 312237 312237 312237
       459 312239 312239 312239 312239
       460 312240 312240 312240 312240
       461 312241 312241 312241 312241
       462 312248 312248 312248 312248
       463 312252 312252 312252 312252
       464 312255 312255 312255 312255
       465 312263 312263 312263 312263
       466 312267 312267 312267 312267
       467 312271 312271 312271 312271
       468 312272 312272 312272 312272
       469 312273 312273 312273 312273
       470 312275 312275 312275 312275
       471 312276 312276 312276 312276
       472 312277 312277 312277 312277
       473 312284 312284 312284 312284
       474 312288 312288 312288 312288
       475 312291 312291 312291 312291
       476 312293 312293 312293 312293
       477 312300 312300 312300 312300
       478 312304 312304 312304 312304
       479 312308 312308 312308 312308
       480 312309 312309 312309 312309
       481 312310 312310 312310 312310
       482 312312 312312 312312 312312
       483 312313 312313 312313 312313
       484 312314 312314 312314 312314
       485 312321 312321 312321 312321
       486 312325 312325 312325 312325
       487 312328 312328 312328 312328
       488 312331 312331 312331 312331
       489 312339 312339 312339 312339
       490 312343 312343 312343 312343
       491 312347 312347 312347 312347
       492 312348 312348 312348 312348
       493 312349 312349 312349 312349
       494 312351 312351 312351 312351
       495 312352 312352 312352 312352
       496 312353 312353 312353 312353
       497 312360 312360 312360 312360
       498 312364 312364 312364 312364
       499 312367 312367 312367 312367
       500 312377 312377 312377 312377
       501 312381 312381 312381 312381
       502 312385 312385 312385 312385
       503 312386 312386 312386 312386
       504 312387 312387 312387 312387
       505 312389 312389 312389 312389
       506 312390 312390 312390 312390
       507 312391 312391 312391 312391
       508 312398 312398 312398 312398
       509 312402 312402 312402 312402
       510 312405 312405 312405 312405
       511 312407 312407 312407 312407
       512 312415 312415 312415 312415
       513 312419 312419 312419 312419
       514 312422 312422 312422 312422
       515 312423 312423 312423 312423
       516 312424 312424 312424 312424
       517 312426 312426 312426 312426
       518 312427 312427 312427 312427
       519 312428 312428 312428 312428
       520 312435 312435 312435 312435
       521 312439 312439 312439 312439
       522 312442 312442 312442 312442
       523 312450 312450 312450 312450
       524 312454 312454 312454 312454
       525 312458 312458 312458 312458
       526 312459 312459 312459 312459
       527 312460 312460 312460 312460
       528 312461 312461 312461 312461
       529 312462 312462 312462 312462
       530 312463 312463 312463 312463
       531 312470 312470 312470 312470
       532 312474 312474 312474 312474
       533 312477 312477 312477 312477
       534 312484 312484 312484 312484
       535 312489 312489 312489 312489
       536 312491 312491 312491 312491
       537 312492 312492 312492 312492
       538 312493 312493 312493 312493
       539 312494 312494 312494 312494
       540 312496 312496 312496 312496
       541 312497 312497 312497 312497
       542 312498 312498 312498 312498
       543 312505 312505 312505 312505
       544 312509 312509 312509 312509
       545 312512 312512 312512 312512
       546 312515 312515 312515 312515
       547 312516 312516 312516 312516
       548 312522 312522 312522 312522
       549 312526 312526 312526 312526
       550 312528 312528 312528 312528
       551 312530 312530 312530 312530
       552 312531 312531 312531 312531
       553 312532 312532 312532 312532
       554 312534 312534 312534 312534
       555 312535 312535 312535 312535
       556 312536 312536 312536 312536
       557 312543 312543 312543 312543
       558 312547 312547 312547 312547
       559 312550 312550 312550 312550
       560 312561 312561 312561 312561
       561 312564 312564 312564 312564
       562 312565 312565 312565 312565
       563 312566 312566 312566 312566
       564 312568 312568 312568 312568
       565 312569 312569 312569 312569
       566 312576 312576 312576 312576
       567 312580 312580 312580 312580
       568 312583 312583 312583 312583
       569 312596 312596 312596 312596
       570 312598 312598 312598 312598
       571 312600 312600 312600 312600
       572 312601 312601 312601 312601
       573 312602 312602 312602 312602
       574 312604 312604 312604 312604
       575 312606 312606 312606 312606
       576 312613 312613 312613 312613
       577 312617 312617 312617 312617
       578 312622 312622 312622 312622
       579 312625 312625 312625 312625
       580 312634 312634 312634 312634
       581 312636 312636 312636 312636
       582 312638 312638 312638 312638
       583 312639 312639 312639 312639
       584 312640 312640 312640 312640
       585 312642 312642 312642 312642
       586 312644 312644 312644 312644
       587 312651 312651 312651 312651
       588 312655 312655 312655 312655
       589 312670 312670 312670 312670
       590 312672 312672 312672 312672
       591 312674 312674 312674 312674
       592 312675 312675 312675 312675
       593 312676 312676 312676 312676
       594 312678 312678 312678 312678
       595 312680 312680 312680 312680
       596 312687 312687 312687 312687
       597 312691 312691 312691 312691
       598 312696 312696 312696 312696
       599 312697 312697 312697 312697
       600 312708 312708 312708 312708
       601 312709 312709 312709 312709
       602 312711 312711 312711 312711
       603 312712 312712 312712 312712
       604 312713 312713 312713 312713
       605 312715 312715 312715 312715
       606 312717 312717 312717 312717
       607 312724 312724 312724 312724
       608 312728 312728 312728 312728
       609 312733 312733 312733 312733
       610 312743 312743 312743 312743
       611 312745 312745 312745 312745
       612 312747 312747 312747 312747
       613 312748 312748 312748 312748
       614 312750 312750 312750 312750
       615 312752 312752 312752 312752
       616 312759 312759 312759 312759
       617 312763 312763 312763 312763
       618 312766 312766 312766 312766
       619 312778 312778 312778 312778
       620 312780 312780 312780 312780
       621 312782 312782 312782 312782
       622 312783 312783 312783 312783
       623 312784 312784 312784 312784
       624 312785 312785 312785 312785
       625 312787 312787 312787 312787
       626 312794 312794 312794 312794
       627 312798 312798 312798 312798
       628 312801 312801 312801 312801
       629 312815 312815 312815 312815
       630 312817 312817 312817 312817
       631 312819 312819 312819 312819
       632 312820 312820 312820 312820
       633 312821 312821 312821 312821
       634 312822 312822 312822 312822
       635 312824 312824 312824 312824
       636 312831 312831 312831 312831
       637 312835 312835 312835 312835
       638 312838 312838 312838 312838
       639 312841 312841 312841 312841
       640 312851 312851 312851 312851
       641 312853 312853 312853 312853
       642 312855 312855 312855 312855
       643 312856 312856 312856 312856
       644 312858 312858 312858 312858
       645 312859 312859 312859 312859
       646 312868 312868 312868 312868
       647 312872 312872 312872 312872
       648 312875 312875 312875 312875
       649 312877 312877 312877 312877
       650 312886 312886 312886 312886
       651 312888 312888 312888 312888
       652 312889 312889 312889 312889
       653 312891 312891 312891 312891
       654 312892 312892 312892 312892
       655 312894 312894 312894 312894
       656 312903 312903 312903 312903
       657 312907 312907 312907 312907
       658 312910 312910 312910 312910
       659 312918 312918 312918 312918
       660 312926 312926 312926 312926
       661 312928 312928 312928 312928
       662 312930 312930 312930 312930
       663 312931 312931 312931 312931
       664 312932 312932 312932 312932
       665 312934 312934 312934 312934
       666 312943 312943 312943 312943
       667 312947 312947 312947 312947
       668 312950 312950 312950 312950
       669 312952 312952 312952 312952
       670 312954 312954 312954 312954
       671 312962 312962 312962 312962
       672 312964 312964 312964 312964
       673 312966 312966 312966 312966
       674 312967 312967 312967 312967
       675 312968 312968 312968 312968
       676 312970 312970 312970 312970
       677 312979 312979 312979 312979
       678 312983 312983 312983 312983
       679 312986 312986 312986 312986
       680 312989 312989 312989 312989
       681 312991 312991 312991 312991
       682 312999 312999 312999 312999
       683 313001 313001 313001 313001
       684 313003 313003 313003 313003
       685 313004 313004 313004 313004
       686 313005 313005 313005 313005
       687 313007 313007 313007 313007
       688 313016 313016 313016 313016
       689 313020 313020 313020 313020
       690 313023 313023 313023 313023
       691 313026 313026 313026 313026
       692 313029 313029 313029 313029
       693 313037 313037 313037 313037
       694 313039 313039 313039 313039
       695 313041 313041 313041 313041
       696 313042 313042 313042 313042
       697 313043 313043 313043 313043
       698 313045 313045 313045 313045
       699 313049 313049 313049 313049
       700 313054 313054 313054 313054
       701 313058 313058 313058 313058
       702 313061 313061 313061 313061
       703 313064 313064 313064 313064
       704 313073 313073 313073 313073
       705 313075 313075 313075 313075
       706 313077 313077 313077 313077
       707 313078 313078 313078 313078
       708 313079 313079 313079 313079
       709 313081 313081 313081 313081
       710 313090 313090 313090 313090
       711 313094 313094 313094 313094
       712 313097 313097 313097 313097
       713 313099 313099 313099 313099
       714 313103 313103 313103 313103
       715 313111 313111 313111 313111
       716 313112 313112 313112 313112
       717 313114 313114 313114 313114
       718 313115 313115 313115 313115
       719 313116 313116 313116 313116
       720 313118 313118 313118 313118
       721 313127 313127 313127 313127
       722 313131 313131 313131 313131
       723 313134 313134 313134 313134
       724 313139 313139 313139 313139
       725 313147 313147 313147 313147
       726 313149 313149 313149 313149
       727 313151 313151 313151 313151
       728 313152 313152 313152 313152
       729 313153 313153 313153 313153
       730 313155 313155 313155 313155
       731 313164 313164 313164 313164
       732 313168 313168 313168 313168
       733 313171 313171 313171 313171
       734 313175 313175 313175 313175
       735 313183 313183 313183 313183
       736 313185 313185 313185 313185
       737 313186 313186 313186 313186
       738 313187 313187 313187 313187
       739 313189 313189 313189 313189
       740 313198 313198 313198 313198
       741 313202 313202 313202 313202
       742 313205 313205 313205 313205
       743 313207 313207 313207 313207
       744 313215 313215 313215 313215
       745 313216 313216 313216 313216
       746 313218 313218 313218 313218
       747 313220 313220 313220 313220
       748 313221 313221 313221 313221
       749 313222 313222 313222 313222
       750 313224 313224 313224 313224
       751 313233 313233 313233 313233
       752 313237 313237 313237 313237
       753 313240 313240 313240 313240
       754 313242 313242 313242 313242
       755 313244 313244 313244 313244
       756 313245 313245 313245 313245
       757 313246 313246 313246 313246
       758 313247 313247 313247 313247
       759 313249 313249 313249 313249
       760 313255 313255 313255 313255
       761 313258 313258 313258 313258
       762 313260 313260 313260 313260
       763 313261 313261 313261 313261
       764 313262 313262 313262 313262
       765 313264 313264 313264 313264
       766 313273 313273 313273 313273
       767 313277 313277 313277 313277
       768 313280 313280 313280 313280
       769 313284 313284 313284 313284
       770 313291 313291 313291 313291
       771 313293 313293 313293 313293
       772 313295 313295 313295 313295
       773 313297 313297 313297 313297
       774 313298 313298 313298 313298
       775 313299 313299 313299 313299
       776 313301 313301 313301 313301
       777 313310 313310 313310 313310
       778 313314 313314 313314 313314
       779 313317 313317 313317 313317
       780 313320 313320 313320 313320
       781 313321 313321 313321 313321
       782 313328 313328 313328 313328
       783 313329 313329 313329 313329
       784 313331 313331 313331 313331
       785 313333 313333 313333 313333
       786 313334 313334 313334 313334
       787 313335 313335 313335 313335
       788 313337 313337 313337 313337
       789 313346 313346 313346 313346
       790 313350 313350 313350 313350
       791 313353 313353 313353 313353
       792 313358 313358 313358 313358
       793 313364 313364 313364 313364
       794 313365 313365 313365 313365
       795 313368 313368 313368 313368
       796 313369 313369 313369 313369
       797 313370 313370 313370 313370
       798 313371 313371 313371 313371
       799 313373 313373 313373 313373
       800 313382 313382 313382 313382
       801 313386 313386 313386 313386
       802 313389 313389 313389 313389
       803 313391 313391 313391 313391
       804 313393 313393 313393 313393
       805 313400 313400 313400 313400
       806 313401 313401 313401 313401
       807 313404 313404 313404 313404
       808 313405 313405 313405 313405
       809 313406 313406 313406 313406
       810 313407 313407 313407 313407
       811 313409 313409 313409 313409
       812 313418 313418 313418 313418
       813 313421 313421 313421 313421
       814 313424 313424 313424 313424
       815 313426 313426 313426 313426
       816 313428 313428 313428 313428
       817 313430 313430 313430 313430
       818 313437 313437 313437 313437
       819 313438 313438 313438 313438
       820 313441 313441 313441 313441
       821 313442 313442 313442 313442
       822 313443 313443 313443 313443
       823 313444 313444 313444 313444
       824 313446 313446 313446 313446
       825 313455 313455 313455 313455
       826 313459 313459 313459 313459
       827 313462 313462 313462 313462
       828 313465 313465 313465 313465
       829 313472 313472 313472 313472
       830 313473 313473 313473 313473
       831 313476 313476 313476 313476
       832 313477 313477 313477 313477
       833 313478 313478 313478 313478
       834 313479 313479 313479 313479
       835 313481 313481 313481 313481
       836 313490 313490 313490 313490
       837 313494 313494 313494 313494
       838 313497 313497 313497 313497
       839 313504 313504 313504 313504
       840 313511 313511 313511 313511
       841 313515 313515 313515 313515
       842 313516 313516 313516 313516
       843 313517 313517 313517 313517
       844 313518 313518 313518 313518
       845 313520 313520 313520 313520
       846 313529 313529 313529 313529
       847 313533 313533 313533 313533
       848 313536 313536 313536 313536
       849 313542 313542 313542 313542
       850 313549 313549 313549 313549
       851 313553 313553 313553 313553
       852 313554 313554 313554 313554
       853 313555 313555 313555 313555
       854 313556 313556 313556 313556
       855 313558 313558 313558 313558
       856 313567 313567 313567 313567
       857 313571 313571 313571 313571
       858 313574 313574 313574 313574
       859 313577 313577 313577 313577
       860 313582 313582 313582 313582
       861 313589 313589 313589 313589
       862 313593 313593 313593 313593
       863 313594 313594 313594 313594
       864 313595 313595 313595 313595
       865 313596 313596 313596 313596
       866 313598 313598 313598 313598
       867 313607 313607 313607 313607
       868 313611 313611 313611 313611
       869 313614 313614 313614 313614
       870 313616 313616 313616 313616
       871 313620 313620 313620 313620
       872 313629 313629 313629 313629
       873 313630 313630 313630 313630
       874 313631 313631 313631 313631
       875 313632 313632 313632 313632
       876 313638 313638 313638 313638
       877 313642 313642 313642 313642
       878 313646 313646 313646 313646
       879 313649 313649 313649 313649
       880 313651 313651 313651 313651
       881 313653 313653 313653 313653
       882 313655 313655 313655 313655
       883 313666 313666 313666 313666
       884 313667 313667 313667 313667
       885 313668 313668 313668 313668
       886 313669 313669 313669 313669
       887 313675 313675 313675 313675
       888 313679 313679 313679 313679
       889 313683 313683 313683 313683
       890 313686 313686 313686 313686
       891 313688 313688 313688 313688
       892 313692 313692 313692 313692
       893 313694 313694 313694 313694
       894 313705 313705 313705 313705
       895 313706 313706 313706 313706
       896 313707 313707 313707 313707
       897 313708 313708 313708 313708
       898 313714 313714 313714 313714
       899 313718 313718 313718 313718
       900 313722 313722 313722 313722
       901 313725 313725 313725 313725
       902 313729 313729 313729 313729
       903 313730 313730 313730 313730
       904 313735 313735 313735 313735
       905 313746 313746 313746 313746
       906 313747 313747 313747 313747
       907 313748 313748 313748 313748
       908 313749 313749 313749 313749
       909 313755 313755 313755 313755
       910 313759 313759 313759 313759
       911 313763 313763 313763 313763
       912 313766 313766 313766 313766
       913 313773 313773 313773 313773
       914 313784 313784 313784 313784
       915 313785 313785 313785 313785
       916 313786 313786 313786 313786
       917 313787 313787 313787 313787
       918 313794 313794 313794 313794
       919 313798 313798 313798 313798
       920 313802 313802 313802 313802
       921 313805 313805 313805 313805
       922 313808 313808 313808 313808
       923 313811 313811 313811 313811
       924 313813 313813 313813 313813
       925 313824 313824 313824 313824
       926 313825 313825 313825 313825
       927 313826 313826 313826 313826
       928 313827 313827 313827 313827
       929 313834 313834 313834 313834
       930 313838 313838 313838 313838
       931 313842 313842 313842 313842
       932 313845 313845 313845 313845
       933 313847 313847 313847 313847
       934 313850 313850 313850 313850
       935 313852 313852 313852 313852
       936 313863 313863 313863 313863
       937 313864 313864 313864 313864
       938 313865 313865 313865 313865
       939 313873 313873 313873 313873
       940 313877 313877 313877 313877
       941 313881 313881 313881 313881
       942 313884 313884 313884 313884
       943 313886 313886 313886 313886
       944 313889 313889 313889 313889
       945 313895 313895 313895 313895
       946 313906 313906 313906 313906
       947 313907 313907 313907 313907
       948 313908 313908 313908 313908
       949 313909 313909 313909 313909
       950 313916 313916 313916 313916
       951 313920 313920 313920 313920
       952 313924 313924 313924 313924
       953 313927 313927 313927 313927
       954 313933 313933 313933 313933
       955 313944 313944 313944 313944
       956 313945 313945 313945 313945
       957 313946 313946 313946 313946
       958 313949 313949 313949 313949
       959 313954 313954 313954 313954
       960 313958 313958 313958 313958
       961 313962 313962 313962 313962
       962 313965 313965 313965 313965
       963 313967 313967 313967 313967
       964 313973 313973 313973 313973
       965 313984 313984 313984 313984
       966 313985 313985 313985 313985
       967 313986 313986 313986 313986
       968 313987 313987 313987 313987
       969 313994 313994 313994 313994
       970 313998 313998 313998 313998
       971 314001 314001 314001 314001
       972 314002 314002 314002 314002
       973 314005 314005 314005 314005
       974 314007 314007 314007 314007
       975 314008 314008 314008 314008
       976 314011 314011 314011 314011
       977 314022 314022 314022 314022
       978 314023 314023 314023 314023
       979 314024 314024 314024 314024
       980 314027 314027 314027 314027
       981 314032 314032 314032 314032
       982 314035 314035 314035 314035
       983 314039 314039 314039 314039
       984 314042 314042 314042 314042
       985 314047 314047 314047 314047
       986 314049 314049 314049 314049
       987 314060 314060 314060 314060
       988 314061 314061 314061 314061
       989 314062 314062 314062 314062
       990 314063 314063 314063 314063
       991 314070 314070 314070 314070
       992 314073 314073 314073 314073
       993 314074 314074 314074 314074
       994 314078 314078 314078 314078
       995 314081 314081 314081 314081
       996 314084 314084 314084 314084
       997 314086 314086 314086 314086
       998 314097 314097 314097 314097
       999 314098 314098 314098 314098
       1000 314099 314099 314099 314099
       1001 314102 314102 314102 314102
       1002 314107 314107 314107 314107
       1003 314110 314110 314110 314110
       1004 314111 314111 314111 314111
       1005 314115 314115 314115 314115
       1006 314118 314118 314118 314118
       1007 314122 314122 314122 314122
       1008 314127 314127 314127 314127
       1009 314138 314138 314138 314138
       1010 314139 314139 314139 314139
       1011 314140 314140 314140 314140
       1012 314141 314141 314141 314141
       1013 314148 314148 314148 314148
       1014 314151 314151 314151 314151
       1015 314152 314152 314152 314152
       1016 314156 314156 314156 314156
       1017 314159 314159 314159 314159
       1018 314163 314163 314163 314163
       1019 314173 314173 314173 314173
       1020 314174 314174 314174 314174
       1021 314175 314175 314175 314175
       1022 314178 314178 314178 314178
       1023 314182 314182 314182 314182
       1024 314183 314183 314183 314183
       1025 314186 314186 314186 314186
       1026 314187 314187 314187 314187
       1027 314191 314191 314191 314191
       1028 314194 314194 314194 314194
       1029 314197 314197 314197 314197
       1030 314198 314198 314198 314198
       1031 314200 314200 314200 314200
       1032 314209 314209 314209 314209
       1033 314211 314211 314211 314211
       1034 314212 314212 314212 314212
       1035 314213 314213 314213 314213
       1036 314214 314214 314214 314214
       1037 314221 314221 314221 314221
       1038 314224 314224 314224 314224
       1039 314225 314225 314225 314225
       1040 314229 314229 314229 314229
       1041 314232 314232 314232 314232
       1042 314234 314234 314234 314234
       1043 314238 314238 314238 314238
       1044 314240 314240 314240 314240
       1045 314248 314248 314248 314248
       1046 314250 314250 314250 314250
       1047 314251 314251 314251 314251
       1048 314252 314252 314252 314252
       1049 314255 314255 314255 314255
       1050 314260 314260 314260 314260
       1051 314263 314263 314263 314263
       1052 314264 314264 314264 314264
       1053 314268 314268 314268 314268
       1054 314271 314271 314271 314271
       1055 314274 314274 314274 314274
       1056 314279 314279 314279 314279
       1057 314280 314280 314280 314280
       1058 314288 314288 314288 314288
       1059 314290 314290 314290 314290
       1060 314291 314291 314291 314291
       1061 314292 314292 314292 314292
       1062 314293 314293 314293 314293
       1063 314300 314300 314300 314300
       1064 314303 314303 314303 314303
       1065 314304 314304 314304 314304
       1066 314308 314308 314308 314308
       1067 314311 314311 314311 314311
       1068 314314 314314 314314 314314
       1069 314317 314317 314317 314317
       1070 314318 314318 314318 314318
       1071 314326 314326 314326 314326
       1072 314328 314328 314328 314328
       1073 314329 314329 314329 314329
       1074 314330 314330 314330 314330
       1075 314333 314333 314333 314333
       1076 314338 314338 314338 314338
       1077 314341 314341 314341 314341
       1078 314342 314342 314342 314342
       1079 314346 314346 314346 314346
       1080 314349 314349 314349 314349
       1081 314353 314353 314353 314353
       1082 314354 314354 314354 314354
       1083 314355 314355 314355 314355
       1084 314364 314364 314364 314364
       1085 314366 314366 314366 314366
       1086 314367 314367 314367 314367
       1087 314368 314368 314368 314368
       1088 314369 314369 314369 314369
       1089 314376 314376 314376 314376
       1090 314379 314379 314379 314379
       1091 314380 314380 314380 314380
       1092 314384 314384 314384 314384
       1093 314387 314387 314387 314387
       1094 314390 314390 314390 314390
       1095 314392 314392 314392 314392
       1096 314393 314393 314393 314393
       1097 314394 314394 314394 314394
       1098 314395 314395 314395 314395
       1099 314396 314396 314396 314396
       1100 314398 314398 314398 314398
       1101 314404 314404 314404 314404
       1102 314406 314406 314406 314406
       1103 314407 314407 314407 314407
       1104 314408 314408 314408 314408
       1105 314415 314415 314415 314415
       1106 314418 314418 314418 314418
       1107 314419 314419 314419 314419
       1108 314423 314423 314423 314423
       1109 314426 314426 314426 314426
       1110 314428 314428 314428 314428
       1111 314430 314430 314430 314430
       1112 314432 314432 314432 314432
       1113 314433 314433 314433 314433
       1114 314434 314434 314434 314434
       1115 314436 314436 314436 314436
       1116 314442 314442 314442 314442
       1117 314444 314444 314444 314444
       1118 314445 314445 314445 314445
       1119 314453 314453 314453 314453
       1120 314456 314456 314456 314456
       1121 314457 314457 314457 314457
       1122 314461 314461 314461 314461
       1123 314463 314463 314463 314463
       1124 314466 314466 314466 314466
       1125 314468 314468 314468 314468
       1126 314469 314469 314469 314469
       1127 314470 314470 314470 314470
       1128 314471 314471 314471 314471
       1129 314472 314472 314472 314472
       1130 314473 314473 314473 314473
       1131 314474 314474 314474 314474
       1132 314483 314483 314483 314483
       1133 314484 314484 314484 314484
       1134 314492 314492 314492 314492
       1135 314495 314495 314495 314495
       1136 314496 314496 314496 314496
       1137 314500 314500 314500 314500
       1138 314502 314502 314502 314502
       1139 314509 314509 314509 314509
       1140 314510 314510 314510 314510
       1141 314512 314512 314512 314512
       1142 314513 314513 314513 314513
       1143 314514 314514 314514 314514
       1144 314521 314521 314521 314521
       1145 314524 314524 314524 314524
       1146 314525 314525 314525 314525
       1147 314533 314533 314533 314533
       1148 314536 314536 314536 314536
       1149 314537 314537 314537 314537
       1150 314541 314541 314541 314541
       1151 314543 314543 314543 314543
       1152 314546 314546 314546 314546
       1153 314547 314547 314547 314547
       1154 314549 314549 314549 314549
       1155 314550 314550 314550 314550
       1156 314551 314551 314551 314551
       1157 314552 314552 314552 314552
       1158 314559 314559 314559 314559
       1159 314562 314562 314562 314562
       1160 314563 314563 314563 314563
       1161 314571 314571 314571 314571
       1162 314574 314574 314574 314574
       1163 314575 314575 314575 314575
       1164 314582 314582 314582 314582
       1165 314584 314584 314584 314584
       1166 314585 314585 314585 314585
       1167 314587 314587 314587 314587
       1168 314588 314588 314588 314588
       1169 314590 314590 314590 314590
       1170 314591 314591 314591 314591
       1171 314592 314592 314592 314592
       1172 314594 314594 314594 314594
       1173 314600 314600 314600 314600
       1174 314603 314603 314603 314603
       1175 314604 314604 314604 314604
       1176 314612 314612 314612 314612
       1177 314615 314615 314615 314615
       1178 314616 314616 314616 314616
       1179 314623 314623 314623 314623
       1180 314625 314625 314625 314625
       1181 314628 314628 314628 314628
       1182 314630 314630 314630 314630
       1183 314632 314632 314632 314632
       1184 314633 314633 314633 314633
       1185 314634 314634 314634 314634
       1186 314636 314636 314636 314636
       1187 314641 314641 314641 314641
       1188 314644 314644 314644 314644
       1189 314645 314645 314645 314645
       1190 314653 314653 314653 314653
       1191 314656 314656 314656 314656
       1192 314657 314657 314657 314657
       1193 314664 314664 314664 314664
       1194 314666 314666 314666 314666
       1195 314670 314670 314670 314670
       1196 314673 314673 314673 314673
       1197 314674 314674 314674 314674
       1198 314675 314675 314675 314675
       1199 314677 314677 314677 314677
       1200 314683 314683 314683 314683
       1201 314686 314686 314686 314686
       1202 314687 314687 314687 314687
       1203 314695 314695 314695 314695
       1204 314698 314698 314698 314698
       1205 314699 314699 314699 314699
       1206 314706 314706 314706 314706
       1207 314711 314711 314711 314711
       1208 314714 314714 314714 314714
       1209 314715 314715 314715 314715
       1210 314716 314716 314716 314716
       1211 314718 314718 314718 314718
       1212 314723 314723 314723 314723
       1213 314726 314726 314726 314726
       1214 314727 314727 314727 314727
       1215 314735 314735 314735 314735
       1216 314738 314738 314738 314738
       1217 314739 314739 314739 314739
       1218 314746 314746 314746 314746
       1219 314748 314748 314748 314748
       1220 314749 314749 314749 314749
       1221 314751 314751 314751 314751
       1222 314755 314755 314755 314755
       1223 314756 314756 314756 314756
       1224 314757 314757 314757 314757
       1225 314759 314759 314759 314759
       1226 314765 314765 314765 314765
       1227 314768 314768 314768 314768
       1228 314769 314769 314769 314769
       1229 314777 314777 314777 314777
       1230 314780 314780 314780 314780
       1231 314781 314781 314781 314781
       1232 314788 314788 314788 314788
       1233 314790 314790 314790 314790
       1234 314791 314791 314791 314791
       1235 314794 314794 314794 314794
       1236 314796 314796 314796 314796
       1237 314797 314797 314797 314797
       1238 314798 314798 314798 314798
       1239 314799 314799 314799 314799
       1240 314800 314800 314800 314800
       1241 314806 314806 314806 314806
       1242 314809 314809 314809 314809
       1243 314810 314810 314810 314810
       1244 314818 314818 314818 314818
       1245 314821 314821 314821 314821
       1246 314822 314822 314822 314822
       1247 314829 314829 314829 314829
       1248 314831 314831 314831 314831
       1249 314834 314834 314834 314834
       1250 314835 314835 314835 314835
       1251 314837 314837 314837 314837
       1252 314838 314838 314838 314838
       1253 314839 314839 314839 314839
       1254 314841 314841 314841 314841
       1255 314847 314847 314847 314847
       1256 314850 314850 314850 314850
       1257 314851 314851 314851 314851
       1258 314859 314859 314859 314859
       1259 314862 314862 314862 314862
       1260 314863 314863 314863 314863
       1261 314870 314870 314870 314870
       1262 314872 314872 314872 314872
       1263 314873 314873 314873 314873
       1264 314874 314874 314874 314874
       1265 314876 314876 314876 314876
       1266 314877 314877 314877 314877
       1267 314878 314878 314878 314878
       1268 314879 314879 314879 314879
       1269 314880 314880 314880 314880
       1270 314881 314881 314881 314881
       1271 314883 314883 314883 314883
       1272 314888 314888 314888 314888
       1273 314891 314891 314891 314891
       1274 314892 314892 314892 314892
       1275 314900 314900 314900 314900
       1276 314903 314903 314903 314903
       1277 314904 314904 314904 314904
       1278 314911 314911 314911 314911
       1279 314914 314914 314914 314914
       1280 314916 314916 314916 314916
       1281 314918 314918 314918 314918
       1282 314919 314919 314919 314919
       1283 314920 314920 314920 314920
       1284 314921 314921 314921 314921
       1285 314923 314923 314923 314923
       1286 314927 314927 314927 314927
       1287 314929 314929 314929 314929
       1288 314931 314931 314931 314931
       1289 314932 314932 314932 314932
       1290 314940 314940 314940 314940
       1291 314943 314943 314943 314943
       1292 314944 314944 314944 314944
       1293 314951 314951 314951 314951
       1294 314953 314953 314953 314953
       1295 314954 314954 314954 314954
       1296 314956 314956 314956 314956
       1297 314957 314957 314957 314957
       1298 314959 314959 314959 314959
       1299 314960 314960 314960 314960
       1300 314961 314961 314961 314961
       1301 314965 314965 314965 314965
       1302 314967 314967 314967 314967
       1303 314968 314968 314968 314968
       1304 314970 314970 314970 314970
       1305 314978 314978 314978 314978
       1306 314979 314979 314979 314979
       1307 314981 314981 314981 314981
       1308 314982 314982 314982 314982
       1309 314989 314989 314989 314989
       1310 314991 314991 314991 314991
       1311 314995 314995 314995 314995
       1312 314996 314996 314996 314996
       1313 314997 314997 314997 314997
       1314 314999 314999 314999 314999
       1315 315003 315003 315003 315003
       1316 315005 315005 315005 315005
       1317 315006 315006 315006 315006
       1318 315009 315009 315009 315009
       1319 315017 315017 315017 315017
       1320 315018 315018 315018 315018
       1321 315020 315020 315020 315020
       1322 315021 315021 315021 315021
       1323 315028 315028 315028 315028
       1324 315031 315031 315031 315031
       1325 315035 315035 315035 315035
       1326 315036 315036 315036 315036
       1327 315037 315037 315037 315037
       1328 315039 315039 315039 315039
       1329 315043 315043 315043 315043
       1330 315045 315045 315045 315045
       1331 315046 315046 315046 315046
       1332 315049 315049 315049 315049
       1333 315057 315057 315057 315057
       1334 315059 315059 315059 315059
       1335 315060 315060 315060 315060
       1336 315067 315067 315067 315067
       1337 315071 315071 315071 315071
       1338 315072 315072 315072 315072
       1339 315073 315073 315073 315073
       1340 315075 315075 315075 315075
       1341 315079 315079 315079 315079
       1342 315081 315081 315081 315081
       1343 315082 315082 315082 315082
       1344 315085 315085 315085 315085
       1345 315090 315090 315090 315090
       1346 315093 315093 315093 315093
       1347 315096 315096 315096 315096
       1348 315097 315097 315097 315097
       1349 315104 315104 315104 315104
       1350 315106 315106 315106 315106
       1351 315107 315107 315107 315107
       1352 315110 315110 315110 315110
       1353 315111 315111 315111 315111
       1354 315112 315112 315112 315112
       1355 315114 315114 315114 315114
       1356 315118 315118 315118 315118
       1357 315120 315120 315120 315120
       1358 315121 315121 315121 315121
       1359 315124 315124 315124 315124
       1360 315129 315129 315129 315129
       1361 315132 315132 315132 315132
       1362 315135 315135 315135 315135
       1363 315136 315136 315136 315136
       1364 315143 315143 315143 315143
       1365 315145 315145 315145 315145
       1366 315149 315149 315149 315149
       1367 315150 315150 315150 315150
       1368 315151 315151 315151 315151
       1369 315153 315153 315153 315153
       1370 315157 315157 315157 315157
       1371 315158 315158 315158 315158
       1372 315159 315159 315159 315159
       1373 315163 315163 315163 315163
       1374 315168 315168 315168 315168
       1375 315171 315171 315171 315171
       1376 315174 315174 315174 315174
       1377 315175 315175 315175 315175
       1378 315178 315178 315178 315178
       1379 315182 315182 315182 315182
       1380 315186 315186 315186 315186
       1381 315189 315189 315189 315189
       1382 315190 315190 315190 315190
       1383 315191 315191 315191 315191
       1384 315192 315192 315192 315192
       1385 315194 315194 315194 315194
       1386 315198 315198 315198 315198
       1387 315200 315200 315200 315200
       1388 315201 315201 315201 315201
       1389 315204 315204 315204 315204
       1390 315209 315209 315209 315209
       1391 315212 315212 315212 315212
       1392 315215 315215 315215 315215
       1393 315216 315216 315216 315216
       1394 315219 315219 315219 315219
       1395 315223 315223 315223 315223
       1396 315227 315227 315227 315227
       1397 315228 315228 315228 315228
       1398 315229 315229 315229 315229
       1399 315230 315230 315230 315230
       1400 315232 315232 315232 315232
       1401 315236 315236 315236 315236
       1402 315237 315237 315237 315237
       1403 315238 315238 315238 315238
       1404 315242 315242 315242 315242
       1405 315247 315247 315247 315247
       1406 315250 315250 315250 315250
       1407 315253 315253 315253 315253
       1408 315254 315254 315254 315254
       1409 315257 315257 315257 315257
       1410 315261 315261 315261 315261
       1411 315266 315266 315266 315266
       1412 315267 315267 315267 315267
       1413 315268 315268 315268 315268
       1414 315269 315269 315269 315269
       1415 315271 315271 315271 315271
       1416 315275 315275 315275 315275
       1417 315277 315277 315277 315277
       1418 315278 315278 315278 315278
       1419 315281 315281 315281 315281
       1420 315286 315286 315286 315286
       1421 315289 315289 315289 315289
       1422 315292 315292 315292 315292
       1423 315293 315293 315293 315293
       1424 315296 315296 315296 315296
       1425 315300 315300 315300 315300
       1426 315303 315303 315303 315303
       1427 315305 315305 315305 315305
       1428 315306 315306 315306 315306
       1429 315309 315309 315309 315309
       1430 315310 315310 315310 315310
       1431 315311 315311 315311 315311
       1432 315312 315312 315312 315312
       1433 315314 315314 315314 315314
       1434 315318 315318 315318 315318
       1435 315319 315319 315319 315319
       1436 315320 315320 315320 315320
       1437 315324 315324 315324 315324
       1438 315329 315329 315329 315329
       1439 315332 315332 315332 315332
       1440 315335 315335 315335 315335
       1441 315336 315336 315336 315336
       1442 315339 315339 315339 315339
       1443 315343 315343 315343 315343
       1444 315348 315348 315348 315348
       1445 315349 315349 315349 315349
       1446 315350 315350 315350 315350
       1447 315351 315351 315351 315351
       1448 315353 315353 315353 315353
       1449 315357 315357 315357 315357
       1450 315359 315359 315359 315359
       1451 315360 315360 315360 315360
       1452 315363 315363 315363 315363
       1453 315368 315368 315368 315368
       1454 315371 315371 315371 315371
       1455 315374 315374 315374 315374
       1456 315375 315375 315375 315375
       1457 315378 315378 315378 315378
       1458 315382 315382 315382 315382
       1459 315384 315384 315384 315384
       1460 315387 315387 315387 315387
       1461 315388 315388 315388 315388
       1462 315391 315391 315391 315391
       1463 315392 315392 315392 315392
       1464 315393 315393 315393 315393
       1465 315395 315395 315395 315395
       1466 315398 315398 315398 315398
       1467 315400 315400 315400 315400
       1468 315401 315401 315401 315401
       1469 315404 315404 315404 315404
       1470 315409 315409 315409 315409
       1471 315412 315412 315412 315412
       1472 315415 315415 315415 315415
       1473 315416 315416 315416 315416
       1474 315419 315419 315419 315419
       1475 315423 315423 315423 315423
       1476 315425 315425 315425 315425
       1477 315427 315427 315427 315427
       1478 315429 315429 315429 315429
       1479 315430 315430 315430 315430
       1480 315432 315432 315432 315432
       1481 315436 315436 315436 315436
       1482 315438 315438 315438 315438
       1483 315439 315439 315439 315439
       1484 315442 315442 315442 315442
       1485 315447 315447 315447 315447
       1486 315450 315450 315450 315450
       1487 315453 315453 315453 315453
       1488 315454 315454 315454 315454
       1489 315457 315457 315457 315457
       1490 315466 315466 315466 315466
       1491 315467 315467 315467 315467
       1492 315468 315468 315468 315468
       1493 315469 315469 315469 315469
       1494 315471 315471 315471 315471
       1495 315476 315476 315476 315476
       1496 315477 315477 315477 315477
       1497 315480 315480 315480 315480
       1498 315485 315485 315485 315485
       1499 315488 315488 315488 315488
       1500 315491 315491 315491 315491
       1501 315492 315492 315492 315492
       1502 315495 315495 315495 315495
       1503 315501 315501 315501 315501
       1504 315503 315503 315503 315503
       1505 315504 315504 315504 315504
       1506 315505 315505 315505 315505
       1507 315507 315507 315507 315507
       1508 315508 315508 315508 315508
       1509 315510 315510 315510 315510
       1510 315515 315515 315515 315515
       1511 315516 315516 315516 315516
       1512 315519 315519 315519 315519
       1513 315524 315524 315524 315524
       1514 315527 315527 315527 315527
       1515 315530 315530 315530 315530
       1516 315531 315531 315531 315531
       1517 315534 315534 315534 315534
       1518 315540 315540 315540 315540
       1519 315542 315542 315542 315542
       1520 315545 315545 315545 315545
       1521 315546 315546 315546 315546
       1522 315549 315549 315549 315549
       1523 315554 315554 315554 315554
       1524 315555 315555 315555 315555
       1525 315558 315558 315558 315558
       1526 315562 315562 315562 315562
       1527 315565 315565 315565 315565
       1528 315568 315568 315568 315568
       1529 315569 315569 315569 315569
       1530 315572 315572 315572 315572
       1531 315579 315579 315579 315579
       1532 315583 315583 315583 315583
       1533 315584 315584 315584 315584
       1534 315586 315586 315586 315586
       1535 315587 315587 315587 315587
       1536 315592 315592 315592 315592
       1537 315596 315596 315596 315596
       1538 315601 315601 315601 315601
       1539 315604 315604 315604 315604
       1540 315607 315607 315607 315607
       1541 315608 315608 315608 315608
       1542 315611 315611 315611 315611
       1543 315618 315618 315618 315618
       1544 315622 315622 315622 315622
       1545 315626 315626 315626 315626
       1546 315631 315631 315631 315631
       1547 315632 315632 315632 315632
       1548 315635 315635 315635 315635
       1549 315640 315640 315640 315640
       1550 315643 315643 315643 315643
       1551 315646 315646 315646 315646
       1552 315647 315647 315647 315647
       1553 315650 315650 315650 315650
       1554 315658 315658 315658 315658
       1555 315662 315662 315662 315662
       1556 315664 315664 315664 315664
       1557 315670 315670 315670 315670
       1558 315671 315671 315671 315671
       1559 315674 315674 315674 315674
       1560 315679 315679 315679 315679
       1561 315682 315682 315682 315682
       1562 315685 315685 315685 315685
       1563 315686 315686 315686 315686
       1564 315689 315689 315689 315689
       1565 315695 315695 315695 315695
       1566 315699 315699 315699 315699
       1567 315703 315703 315703 315703
       1568 315708 315708 315708 315708
       1569 315709 315709 315709 315709
       1570 315712 315712 315712 315712
       1571 315717 315717 315717 315717
       1572 315720 315720 315720 315720
       1573 315723 315723 315723 315723
       1574 315724 315724 315724 315724
       1575 315727 315727 315727 315727
       1576 315734 315734 315734 315734
       1577 315735 315735 315735 315735
       1578 315740 315740 315740 315740
       1579 315743 315743 315743 315743
       1580 315749 315749 315749 315749
       1581 315750 315750 315750 315750
       1582 315753 315753 315753 315753
       1583 315758 315758 315758 315758
       1584 315761 315761 315761 315761
       1585 315764 315764 315764 315764
       1586 315765 315765 315765 315765
       1587 315768 315768 315768 315768
       1588 315774 315774 315774 315774
       1589 315776 315776 315776 315776
       1590 315777 315777 315777 315777
       1591 315780 315780 315780 315780
       1592 315784 315784 315784 315784
       1593 315789 315789 315789 315789
       1594 315790 315790 315790 315790
       1595 315793 315793 315793 315793
       1596 315798 315798 315798 315798
       1597 315801 315801 315801 315801
       1598 315804 315804 315804 315804
       1599 315805 315805 315805 315805
       1600 315808 315808 315808 315808
       1601 315815 315815 315815 315815
       1602 315817 315817 315817 315817
       1603 315818 315818 315818 315818
       1604 315820 315820 315820 315820
       1605 315822 315822 315822 315822
       1606 315825 315825 315825 315825
       1607 315831 315831 315831 315831
       1608 315832 315832 315832 315832
       1609 315835 315835 315835 315835
       1610 315840 315840 315840 315840
       1611 315843 315843 315843 315843
       1612 315846 315846 315846 315846
       1613 315847 315847 315847 315847
       1614 315850 315850 315850 315850
       1615 315856 315856 315856 315856
       1616 315858 315858 315858 315858
       1617 315860 315860 315860 315860
       1618 315862 315862 315862 315862
       1619 315864 315864 315864 315864
       1620 315867 315867 315867 315867
       1621 315873 315873 315873 315873
       1622 315874 315874 315874 315874
       1623 315877 315877 315877 315877
       1624 315882 315882 315882 315882
       1625 315885 315885 315885 315885
       1626 315888 315888 315888 315888
       1627 315889 315889 315889 315889
       1628 315892 315892 315892 315892
       1629 315899 315899 315899 315899
       1630 315902 315902 315902 315902
       1631 315904 315904 315904 315904
       1632 315907 315907 315907 315907
       1633 315913 315913 315913 315913
       1634 315914 315914 315914 315914
       1635 315917 315917 315917 315917
       1636 315922 315922 315922 315922
       1637 315925 315925 315925 315925
       1638 315928 315928 315928 315928
       1639 315929 315929 315929 315929
       1640 315932 315932 315932 315932
       1641 315940 315940 315940 315940
       1642 315943 315943 315943 315943
       1643 315944 315944 315944 315944
       1644 315945 315945 315945 315945
       1645 315949 315949 315949 315949
       1646 315950 315950 315950 315950
       1647 315953 315953 315953 315953
       1648 315959 315959 315959 315959
       1649 315960 315960 315960 315960
       1650 315963 315963 315963 315963
       1651 315968 315968 315968 315968
       1652 315971 315971 315971 315971
       1653 315974 315974 315974 315974
       1654 315975 315975 315975 315975
       1655 315978 315978 315978 315978
       1656 315985 315985 315985 315985
       1657 315988 315988 315988 315988
       1658 315990 315990 315990 315990
       1659 315993 315993 315993 315993
       1660 315999 315999 315999 315999
       1661 316002 316002 316002 316002
       1662 316007 316007 316007 316007
       1663 316010 316010 316010 316010
       1664 316013 316013 316013 316013
       1665 316014 316014 316014 316014
       1666 316017 316017 316017 316017
       1667 316024 316024 316024 316024
       1668 316029 316029 316029 316029
       1669 316032 316032 316032 316032
       1670 316039 316039 316039 316039
       1671 316041 316041 316041 316041
       1672 316046 316046 316046 316046
       1673 316049 316049 316049 316049
       1674 316052 316052 316052 316052
       1675 316053 316053 316053 316053
       1676 316056 316056 316056 316056
       1677 316062 316062 316062 316062
       1678 316064 316064 316064 316064
       1679 316069 316069 316069 316069
       1680 316072 316072 316072 316072
       1681 316079 316079 316079 316079
       1682 316082 316082 316082 316082
       1683 316087 316087 316087 316087
       1684 316090 316090 316090 316090
       1685 316093 316093 316093 316093
       1686 316094 316094 316094 316094
       1687 316097 316097 316097 316097
       1688 316105 316105 316105 316105
       1689 316107 316107 316107 316107
       1690 316109 316109 316109 316109
       1691 316116 316116 316116 316116
       1692 316119 316119 316119 316119
       1693 316124 316124 316124 316124
       1694 316126 316126 316126 316126
       1695 316129 316129 316129 316129
       1696 316130 316130 316130 316130
       1697 316133 316133 316133 316133
       1698 316142 316142 316142 316142
       1699 316144 316144 316144 316144
       1700 316147 316147 316147 316147
       1701 316154 316154 316154 316154
       1702 316157 316157 316157 316157
       1703 316162 316162 316162 316162
       1704 316163 316163 316163 316163
       1705 316165 316165 316165 316165
       1706 316168 316168 316168 316168
       1707 316169 316169 316169 316169
       1708 316172 316172 316172 316172
       1709 316179 316179 316179 316179
       1710 316180 316180 316180 316180
       1711 316181 316181 316181 316181
       1712 316183 316183 316183 316183
       1713 316186 316186 316186 316186
       1714 316193 316193 316193 316193
       1715 316196 316196 316196 316196
       1716 316201 316201 316201 316201
       1717 316202 316202 316202 316202
       1718 316204 316204 316204 316204
       1719 316207 316207 316207 316207
       1720 316208 316208 316208 316208
       1721 316211 316211 316211 316211
       1722 316221 316221 316221 316221
       1723 316225 316225 316225 316225
       1724 316234 316234 316234 316234
       1725 316239 316239 316239 316239
       1726 316241 316241 316241 316241
       1727 316244 316244 316244 316244
       1728 316245 316245 316245 316245
       1729 316248 316248 316248 316248
       1730 316254 316254 316254 316254
       1731 316260 316260 316260 316260
       1732 316267 316267 316267 316267
       1733 316270 316270 316270 316270
       1734 316276 316276 316276 316276
       1735 316278 316278 316278 316278
       1736 316281 316281 316281 316281
       1737 316282 316282 316282 316282
       1738 316285 316285 316285 316285
       1739 316297 316297 316297 316297
       1740 316303 316303 316303 316303
       1741 316307 316307 316307 316307
       1742 316313 316313 316313 316313
       1743 316315 316315 316315 316315
       1744 316318 316318 316318 316318
       1745 316319 316319 316319 316319
       1746 316322 316322 316322 316322
       1747 316337 316337 316337 316337
       1748 316343 316343 316343 316343
       1749 316347 316347 316347 316347
       1750 316353 316353 316353 316353
       1751 316355 316355 316355 316355
       1752 316358 316358 316358 316358
       1753 316359 316359 316359 316359
       1754 316362 316362 316362 316362
       1755 316374 316374 316374 316374
       1756 316380 316380 316380 316380
       1757 316384 316384 316384 316384
       1758 316390 316390 316390 316390
       1759 316392 316392 316392 316392
       1760 316395 316395 316395 316395
       1761 316396 316396 316396 316396
       1762 316399 316399 316399 316399
       1763 316413 316413 316413 316413
       1764 316419 316419 316419 316419
       1765 316423 316423 316423 316423
       1766 316429 316429 316429 316429
       1767 316431 316431 316431 316431
       1768 316434 316434 316434 316434
       1769 316435 316435 316435 316435
       1770 316438 316438 316438 316438
       1771 316444 316444 316444 316444
       1772 316451 316451 316451 316451
       1773 316458 316458 316458 316458
       1774 316461 316461 316461 316461
       1775 316467 316467 316467 316467
       1776 316469 316469 316469 316469
       1777 316472 316472 316472 316472
       1778 316473 316473 316473 316473
       1779 316476 316476 316476 316476
       1780 316483 316483 316483 316483
       1781 316490 316490 316490 316490
       1782 316495 316495 316495 316495
       1783 316499 316499 316499 316499
       1784 316505 316505 316505 316505
       1785 316507 316507 316507 316507
       1786 316510 316510 316510 316510
       1787 316511 316511 316511 316511
       1788 316514 316514 316514 316514
       1789 316525 316525 316525 316525
       1790 316531 316531 316531 316531
       1791 316535 316535 316535 316535
       1792 316541 316541 316541 316541
       1793 316543 316543 316543 316543
       1794 316546 316546 316546 316546
       1795 316547 316547 316547 316547
       1796 316550 316550 316550 316550
       1797 316555 316555 316555 316555
       1798 316557 316557 316557 316557
       1799 316560 316560 316560 316560
       1800 316571 316571 316571 316571
       1801 316575 316575 316575 316575
       1802 316581 316581 316581 316581
       1803 316583 316583 316583 316583
       1804 316586 316586 316586 316586
       1805 316587 316587 316587 316587
       1806 316590 316590 316590 316590
       1807 316595 316595 316595 316595
       1808 316597 316597 316597 316597
       1809 316603 316603 316603 316603
       1810 316609 316609 316609 316609
       1811 316613 316613 316613 316613
       1812 316619 316619 316619 316619
       1813 316621 316621 316621 316621
       1814 316624 316624 316624 316624
       1815 316625 316625 316625 316625
       1816 316628 316628 316628 316628
       1817 316633 316633 316633 316633
       1818 316634 316634 316634 316634
       1819 316637 316637 316637 316637
       1820 316639 316639 316639 316639
       1821 316643 316643 316643 316643
       1822 316648 316648 316648 316648
       1823 316656 316656 316656 316656
       1824 316658 316658 316658 316658
       1825 316661 316661 316661 316661
       1826 316662 316662 316662 316662
       1827 316665 316665 316665 316665
       1828 316670 316670 316670 316670
       1829 316674 316674 316674 316674
       1830 316683 316683 316683 316683
       1831 316687 316687 316687 316687
       1832 316688 316688 316688 316688
       1833 316695 316695 316695 316695
       1834 316697 316697 316697 316697
       1835 316700 316700 316700 316700
       1836 316701 316701 316701 316701
       1837 316704 316704 316704 316704
       1838 316709 316709 316709 316709
       1839 316717 316717 316717 316717
       1840 316720 316720 316720 316720
       1841 316724 316724 316724 316724
       1842 316727 316727 316727 316727
       1843 316733 316733 316733 316733
       1844 316735 316735 316735 316735
       1845 316738 316738 316738 316738
       1846 316739 316739 316739 316739
       1847 316742 316742 316742 316742
       1848 316747 316747 316747 316747
       1849 316755 316755 316755 316755
       1850 316758 316758 316758 316758
       1851 316762 316762 316762 316762
       1852 316765 316765 316765 316765
       1853 316771 316771 316771 316771
       1854 316773 316773 316773 316773
       1855 316776 316776 316776 316776
       1856 316777 316777 316777 316777
       1857 316780 316780 316780 316780
       1858 316785 316785 316785 316785
       1859 316796 316796 316796 316796
       1860 316799 316799 316799 316799
       1861 316802 316802 316802 316802
       1862 316805 316805 316805 316805
       1863 316811 316811 316811 316811
       1864 316813 316813 316813 316813
       1865 316816 316816 316816 316816
       1866 316817 316817 316817 316817
       1867 316820 316820 316820 316820
       1868 316825 316825 316825 316825
       1869 316832 316832 316832 316832
       1870 316835 316835 316835 316835
       1871 316839 316839 316839 316839
       1872 316842 316842 316842 316842
       1873 316848 316848 316848 316848
       1874 316850 316850 316850 316850
       1875 316853 316853 316853 316853
       1876 316854 316854 316854 316854
       1877 316857 316857 316857 316857
[...]
     number of failed tshell elements = 0
 f a i l e d   e l e m e n t   r e p o r t  time=  3.5000E-05
     number of failed solid  elements = 0
     number of failed beam   elements = 0
     number of failed shell  elements = 0
     number of failed tshell elements = 0
 f a i l e d   e l e m e n t   r e p o r t  time=  3.5026E-05
     number of failed solid  elements = 0
     number of failed beam   elements = 0
     number of failed shell  elements = 0
     number of failed tshell elements = 0
 f a i l e d   e l e m e n t   r e p o r t  time=  3.5543E-05
     number of failed solid  elements = 0
     number of failed beam   elements = 0
     number of failed shell  elements = 0
     number of failed tshell elements = 0
 f a i l e d   e l e m e n t   r e p o r t  time=  3.5602E-05
     number of failed solid  elements = 0
     number of failed beam   elements = 0
     number of failed shell  elements = 0
     number of failed tshell elements = 0
 f a i l e d   e l e m e n t   r e p o r t  time=  3.5606E-05
     number of failed solid  elements = 0
     number of failed beam   elements = 0
     number of failed shell  elements = 0
     number of failed tshell elements = 0
 f a i l e d   e l e m e n t   r e p o r t  time=  3.6317E-05
     number of failed solid  elements = 0
     number of failed beam   elements = 0
     number of failed shell  elements = 0
     number of failed tshell elements = 0
 f a i l e d   e l e m e n t   r e p o r t  time=  3.6436E-05
     number of failed solid  elements = 0
     number of failed beam   elements = 0
     number of failed shell  elements = 0
     number of failed tshell elements = 0
 f a i l e d   e l e m e n t   r e p o r t  time=  3.6525E-05
     number of failed solid  elements = 0
     number of failed beam   elements = 0
     number of failed shell  elements = 0
     number of failed tshell elements = 0
 f a i l e d   e l e m e n t   r e p o r t  time=  3.6809E-05
     number of failed solid  elements = 0
     number of failed beam   elements = 0
     number of failed shell  elements = 0
     number of failed tshell elements = 0
 f a i l e d   e l e m e n t   r e p o r t  time=  3.7759E-05
     number of failed solid  elements = 0
     number of failed beam   elements = 0
     number of failed shell  elements = 0
     number of failed tshell elements = 0
 f a i l e d   e l e m e n t   r e p o r t  time=  3.7928E-05
     number of failed solid  elements = 0
     number of failed beam   elements = 0
     number of failed shell  elements = 0
     number of failed tshell elements = 0
 f a i l e d   e l e m e n t   r e p o r t  time=  3.7994E-05
     number of failed solid  elements = 0
     number of failed beam   elements = 0
     number of failed shell  elements = 0
     number of failed tshell elements = 0
 f a i l e d   e l e m e n t   r e p o r t  time=  3.8088E-05
     number of failed solid  elements = 0
     number of failed beam   elements = 0
     number of failed shell  elements = 0
     number of failed tshell elements = 0
 f a i l e d   e l e m e n t   r e p o r t  time=  3.8293E-05
     number of failed solid  elements = 0
     number of failed beam   elements = 0
     number of failed shell  elements = 0
     number of failed tshell elements = 0
 f a i l e d   e l e m e n t   r e p o r t  time=  3.8328E-05
     number of failed solid  elements = 0
     number of failed beam   elements = 0
     number of failed shell  elements = 0
     number of failed tshell elements = 0
 f a i l e d   e l e m e n t   r e p o r t  time=  3.8382E-05
     number of failed solid  elements = 0
     number of failed beam   elements = 0
     number of failed shell  elements = 0
     number of failed tshell elements = 0
 f a i l e d   e l e m e n t   r e p o r t  time=  3.8735E-05
     number of failed solid  elements = 0
     number of failed beam   elements = 0
     number of failed shell  elements = 0
     number of failed tshell elements = 0
 f a i l e d   e l e m e n t   r e p o r t  time=  3.8954E-05
     number of failed solid  elements = 0
     number of failed beam   elements = 0
     number of failed shell  elements = 0
     number of failed tshell elements = 0
 f a i l e d   e l e m e n t   r e p o r t  time=  3.8963E-05
     number of failed solid  elements = 0
     number of failed beam   elements = 0
     number of failed shell  elements = 0
     number of failed tshell elements = 0
 f a i l e d   e l e m e n t   r e p o r t  time=  3.9024E-05
     number of failed solid  elements = 0
     number of failed beam   elements = 0
     number of failed shell  elements = 0
     number of failed tshell elements = 0
 f a i l e d   e l e m e n t   r e p o r t  time=  3.9299E-05
     number of failed solid  elements = 0
     number of failed beam   elements = 0
     number of failed shell  elements = 0
     number of failed tshell elements = 0
 f a i l e d   e l e m e n t   r e p o r t  time=  3.9334E-05
     number of failed solid  elements = 0
     number of failed beam   elements = 0
     number of failed shell  elements = 0
     number of failed tshell elements = 0
 f a i l e d   e l e m e n t   r e p o r t  time=  3.9467E-05
     number of failed solid  elements = 0
     number of failed beam   elements = 0
     number of failed shell  elements = 0
     number of failed tshell elements = 0
 f a i l e d   e l e m e n t   r e p o r t  time=  3.9554E-05
     number of failed solid  elements = 0
     number of failed beam   elements = 0
     number of failed shell  elements = 0
     number of failed tshell elements = 0
 f a i l e d   e l e m e n t   r e p o r t  time=  3.9583E-05
     number of failed solid  elements = 0
     number of failed beam   elements = 0
     number of failed shell  elements = 0
     number of failed tshell elements = 0
 f a i l e d   e l e m e n t   r e p o r t  time=  3.9692E-05
     number of failed solid  elements = 0
     number of failed beam   elements = 0
     number of failed shell  elements = 0
     number of failed tshell elements = 0
 f a i l e d   e l e m e n t   r e p o r t  time=  3.9991E-05
     number of failed solid  elements = 0
     number of failed beam   elements = 0
     number of failed shell  elements = 0
     number of failed tshell elements = 0
 f a i l e d   e l e m e n t   r e p o r t  time=  4.0027E-05
     number of failed solid  elements = 0
     number of failed beam   elements = 0
     number of failed shell  elements = 0
     number of failed tshell elements = 0
 f a i l e d   e l e m e n t   r e p o r t  time=  4.0289E-05
     number of failed solid  elements = 0
     number of failed beam   elements = 0
     number of failed shell  elements = 0
     number of failed tshell elements = 0
 f a i l e d   e l e m e n t   r e p o r t  time=  4.0515E-05
     number of failed solid  elements = 0
     number of failed beam   elements = 0
     number of failed shell  elements = 0
     number of failed tshell elements = 0
 f a i l e d   e l e m e n t   r e p o r t  time=  4.0546E-05
     number of failed solid  elements = 0
     number of failed beam   elements = 0
     number of failed shell  elements = 0
     number of failed tshell elements = 0
 f a i l e d   e l e m e n t   r e p o r t  time=  4.0611E-05
     number of failed solid  elements = 0
     number of failed beam   elements = 0
     number of failed shell  elements = 0
     number of failed tshell elements = 0
 f a i l e d   e l e m e n t   r e p o r t  time=  4.0821E-05
     number of failed solid  elements = 0
     number of failed beam   elements = 0
     number of failed shell  elements = 0
     number of failed tshell elements = 0
 f a i l e d   e l e m e n t   r e p o r t  time=  4.1020E-05
     number of failed solid  elements = 0
     number of failed beam   elements = 0
     number of failed shell  elements = 0
     number of failed tshell elements = 0
 f a i l e d   e l e m e n t   r e p o r t  time=  4.1025E-05
     number of failed solid  elements = 0
     number of failed beam   elements = 0
     number of failed shell  elements = 0
     number of failed tshell elements = 0
 f a i l e d   e l e m e n t   r e p o r t  time=  4.1037E-05
     number of failed solid  elements = 0
     number of failed beam   elements = 0
     number of failed shell  elements = 0
     number of failed tshell elements = 0
 f a i l e d   e l e m e n t   r e p o r t  time=  4.1175E-05
     number of failed solid  elements = 0
     number of failed beam   elements = 0
     number of failed shell  elements = 0
     number of failed tshell elements = 0
 f a i l e d   e l e m e n t   r e p o r t  time=  4.1253E-05
     number of failed solid  elements = 0
     number of failed beam   elements = 0
     number of failed shell  elements = 0
     number of failed tshell elements = 0
 f a i l e d   e l e m e n t   r e p o r t  time=  4.1304E-05
     number of failed solid  elements = 0
     number of failed beam   elements = 0
     number of failed shell  elements = 0
     number of failed tshell elements = 0
 f a i l e d   e l e m e n t   r e p o r t  time=  4.1850E-05
     number of failed solid  elements = 0
     number of failed beam   elements = 0
     number of failed shell  elements = 0
     number of failed tshell elements = 0
 f a i l e d   e l e m e n t   r e p o r t  time=  4.1923E-05
     number of failed solid  elements = 0
     number of failed beam   elements = 0
     number of failed shell  elements = 0
     number of failed tshell elements = 0
 f a i l e d   e l e m e n t   r e p o r t  time=  4.1966E-05
     number of failed solid  elements = 0
     number of failed beam   elements = 0
     number of failed shell  elements = 0
     number of failed tshell elements = 0
 f a i l e d   e l e m e n t   r e p o r t  time=  4.2354E-05
     number of failed solid  elements = 0
     number of failed beam   elements = 0
     number of failed shell  elements = 0
     number of failed tshell elements = 0
 f a i l e d   e l e m e n t   r e p o r t  time=  4.2661E-05
     number of failed solid  elements = 0
     number of failed beam   elements = 0
     number of failed shell  elements = 0
     number of failed tshell elements = 0
 f a i l e d   e l e m e n t   r e p o r t  time=  4.2746E-05
     number of failed solid  elements = 0
     number of failed beam   elements = 0
     number of failed shell  elements = 0
     number of failed tshell elements = 0
 f a i l e d   e l e m e n t   r e p o r t  time=  4.4372E-05
     number of failed solid  elements = 0
     number of failed beam   elements = 0
     number of failed shell  elements = 0
     number of failed tshell elements = 0
 f a i l e d   e l e m e n t   r e p o r t  time=  4.8355E-05
     number of failed solid  elements = 0
     number of failed beam   elements = 0
     number of failed shell  elements = 0
     number of failed tshell elements = 0
 f a i l e d   e l e m e n t   r e p o r t  time=  4.8458E-05
     number of failed solid  elements = 0
     number of failed beam   elements = 0
     number of failed shell  elements = 0
     number of failed tshell elements = 0
 f a i l e d   e l e m e n t   r e p o r t  time=  4.8585E-05
     number of failed solid  elements = 0
     number of failed beam   elements = 0
     number of failed shell  elements = 0
     number of failed tshell elements = 0
 f a i l e d   e l e m e n t   r e p o r t  time=  4.9686E-05
     number of failed solid  elements = 0
     number of failed beam   elements = 0
     number of failed shell  elements = 0
     number of failed tshell elements = 0
 f a i l e d   e l e m e n t   r e p o r t  time=  5.0847E-05
     number of failed solid  elements = 0
     number of failed beam   elements = 0
     number of failed shell  elements = 0
     number of failed tshell elements = 0
 f a i l e d   e l e m e n t   r e p o r t  time=  5.3193E-05
     number of failed solid  elements = 0
     number of failed beam   elements = 0
     number of failed shell  elements = 0
     number of failed tshell elements = 0
 f a i l e d   e l e m e n t   r e p o r t  time=  5.3553E-05
     number of failed solid  elements = 0
     number of failed beam   elements = 0
     number of failed shell  elements = 0
     number of failed tshell elements = 0
 f a i l e d   e l e m e n t   r e p o r t  time=  5.3681E-05
     number of failed solid  elements = 0
     number of failed beam   elements = 0
     number of failed shell  elements = 0
     number of failed tshell elements = 0
 f a i l e d   e l e m e n t   r e p o r t  time=  5.4374E-05
     number of failed solid  elements = 0
     number of failed beam   elements = 0
     number of failed shell  elements = 0
     number of failed tshell elements = 0
 f a i l e d   e l e m e n t   r e p o r t  time=  5.5685E-05
     number of failed solid  elements = 0
     number of failed beam   elements = 0
     number of failed shell  elements = 0
     number of failed tshell elements = 0
 f a i l e d   e l e m e n t   r e p o r t  time=  5.8430E-05
     number of failed solid  elements = 0
     number of failed beam   elements = 0
     number of failed shell  elements = 0
     number of failed tshell elements = 0

 S t o r a g e   a l l o c a t i o n   

 Memory required to complete solution   :     275K
 Additional dynamically allocated memory:      30M
                                   Total:      30M


 P r o c e s s o r   #         3

 T i m i n g   i n f o r m a t i o n
                        CPU(seconds)   %CPU  Clock(seconds) %Clock
  ----------------------------------------------------------------
  Keyword Processing ... 3.0816E-01    0.10     3.0935E-01    0.10
  MPP Decomposition .... 6.3646E-01    0.21     7.0011E-01    0.23
    Init Proc .......... 4.8079E-01    0.16     4.8257E-01    0.16
    Decomposition ...... 6.4056E-02    0.02     6.4300E-02    0.02
    Translation ........ 9.1557E-02    0.03     1.5317E-01    0.05
  Initialization ....... 1.5867E-01    0.05     1.6575E-01    0.06
    Init Proc Phase 1 .. 1.0918E-01    0.04     1.1180E-01    0.04
    Init Proc Phase 2 .. 1.4400E-02    0.00     1.5028E-02    0.00
  Element processing ... 1.1903E+02   39.79     1.1962E+02   39.78
    Solids ............. 1.1376E+02   38.03     1.1432E+02   38.02
    E Other ............ 8.2494E-02    0.03     8.2817E-02    0.03
  Binary databases ..... 5.1393E-01    0.17     5.1753E-01    0.17
  ASCII database ....... 2.0732E+00    0.69     2.0888E+00    0.69
  Contact algorithm .... 6.4401E+01   21.53     6.4718E+01   21.52
    Interf. ID         3 1.5677E+01    5.24     1.5747E+01    5.24
    Interf. ID         2 4.0579E+01   13.57     4.0785E+01   13.56
  Rigid Bodies ......... 2.5749E-01    0.09     2.5829E-01    0.09
  DEM .................. 1.1019E+01    3.68     1.1067E+01    3.68
    DEM self contact ... 1.0372E+01    3.47     1.0421E+01    3.47
  Time step size ....... 6.0798E+01   20.33     6.1046E+01   20.30
  Group force file ..... 5.5910E-02    0.02     6.5447E-02    0.02
  Others ............... 3.5084E+00    1.17     3.5887E+00    1.19
    Force Sharing ...... 3.0678E+00    1.03     3.0784E+00    1.02
  Misc. 1 .............. 2.1883E+01    7.32     2.1992E+01    7.31
    Scale Masses ....... 2.8910E-02    0.01     2.9244E-02    0.01
    Force Constraints .. 3.7846E-02    0.01     3.8226E-02    0.01
    Force to Accel ..... 2.1782E+00    0.73     2.1811E+00    0.73
    Constraint Sharing . 3.9670E-02    0.01     3.9988E-02    0.01
    Update RB nodes .... 5.5536E-02    0.02     5.7865E-02    0.02
  Misc. 2 .............. 5.0310E+00    1.68     5.0463E+00    1.68
  Misc. 3 .............. 8.1073E+00    2.71     8.1766E+00    2.72
  Misc. 4 .............. 1.3447E+00    0.45     1.3513E+00    0.45
    Timestep Init ...... 1.0294E+00    0.34     1.0267E+00    0.34
    Apply Loads ........ 2.5091E-01    0.08     2.5918E-01    0.09
  ----------------------------------------------------------------
  T o t a l s            2.9913E+02  100.00     3.0071E+02  100.00


 A v e r a g e s

 T i m i n g   i n f o r m a t i o n
                        CPU(seconds)   %CPU  Clock(seconds) %Clock
  ----------------------------------------------------------------
  Keyword Processing ... 2.8479E-01    0.10     3.0870E-01    0.10
    KW Reading ......... 1.9721E-02    0.01     2.0043E-02    0.01
    KW Writing ......... 1.1432E-02    0.00     1.9405E-02    0.01
  MPP Decomposition .... 5.9333E-01    0.20     7.0052E-01    0.23
    Init Proc .......... 4.3903E-01    0.15     4.8255E-01    0.16
    Decomposition ...... 5.2936E-02    0.02     6.4324E-02    0.02
    Translation ........ 1.0128E-01    0.03     1.5355E-01    0.05
  Initialization ....... 1.5139E-01    0.05     1.6646E-01    0.06
    Init Proc Phase 1 .. 1.0687E-01    0.04     1.1183E-01    0.04
    Init Proc Phase 2 .. 1.3947E-02    0.00     1.5019E-02    0.00
  Element processing ... 1.3316E+02   44.75     1.3388E+02   44.52
    Solids ............. 1.2782E+02   42.96     1.2850E+02   42.73
    E Other ............ 1.3692E-01    0.05     1.3893E-01    0.05
  Binary databases ..... 4.9681E-01    0.17     5.0379E-01    0.17
  ASCII database ....... 2.3227E+00    0.78     3.7271E+00    1.24
  Contact algorithm .... 6.5189E+01   21.91     6.5519E+01   21.79
    Interf. ID         3 1.6393E+01    5.51     1.6472E+01    5.48
    Interf. ID         2 4.1712E+01   14.02     4.1927E+01   13.94
  Rigid Bodies ......... 2.4383E-01    0.08     2.4427E-01    0.08
  DEM .................. 1.0697E+01    3.60     1.0746E+01    3.57
    DEM self contact ... 1.0037E+01    3.37     1.0086E+01    3.35
  Time step size ....... 4.6486E+01   15.62     4.6684E+01   15.52
  Group force file ..... 5.6227E-02    0.02     6.6425E-02    0.02
  Others ............... 2.9405E+00    0.99     3.0199E+00    1.00
    Force Sharing ...... 2.4897E+00    0.84     2.4972E+00    0.83
  Misc. 1 .............. 2.2101E+01    7.43     2.2225E+01    7.39
    Scale Masses ....... 2.1911E-02    0.01     2.1731E-02    0.01
    Force Constraints .. 3.6577E-02    0.01     3.7244E-02    0.01
    Force to Accel ..... 2.2080E+00    0.74     2.2129E+00    0.74
    Constraint Sharing . 3.9183E-02    0.01     3.9466E-02    0.01
    Update RB nodes .... 4.8398E-02    0.02     4.9943E-02    0.02
  Misc. 2 .............. 5.3143E+00    1.79     5.3320E+00    1.77
  Misc. 3 .............. 6.1026E+00    2.05     6.1662E+00    2.05
  Misc. 4 .............. 1.4151E+00    0.48     1.4228E+00    0.47
    Timestep Init ...... 1.0894E+00    0.37     1.0884E+00    0.36
    Apply Loads ........ 2.5924E-01    0.09     2.6654E-01    0.09
  ----------------------------------------------------------------
  T o t a l s            2.9756E+02  100.00     3.0071E+02  100.00

 Problem time       =    6.0001E-05
 Problem cycle      =     55592
 Total CPU time     =       298 seconds (   0 hours  4 minutes 58 seconds)
 CPU time per zone cycle  =        460.830 nanoseconds
 Clock time per zone cycle=        465.618 nanoseconds

 Parallel execution with      4 MPP proc
 NLQ used/max                64/    64

  C P U   T i m i n g   i n f o r m a t i o n

  Processor   Hostname                              CPU/Avg_CPU  CPU(seconds)
  ---------------------------------------------------------------------------
  #       0   compute-0-0                               0.98487   2.9311E+02
  #       1   compute-0-0                               1.00473   2.9902E+02
  #       2   compute-0-0                               1.00510   2.9913E+02
  #       3   compute-0-0                               1.00530   2.9919E+02
  ---------------------------------------------------------------------------
  T o t a l s                                                     1.1905E+03


 Start time   04/08/2022 12:49:31  
 End time     04/08/2022 12:54:31  
 Elapsed time     300 seconds for   55592 cycles using     4 MPP procs
             (      0 hour   5 minutes  0 second )

 N o r m a l    t e r m i n a t i o n                          04/08/22 12:54:31
