      Date: 04/08/2022      Time: 12:49:31  

     ___________________________________________________
     |                                                 |
     |  Livermore Software Technology, LLC             |
     |                                                 |
     |  7374 Las Positas Road                          |
     |  Livermore, CA 94551                            |
     |  Tel: (925) 449-2500  Fax: (925) 449-2507       |
     |  www.lstc.com                                   |
     |_________________________________________________|
     |                                                 |
     |  LS-DYNA, A Program for Nonlinear Dynamic       |
     |  Analysis of Structures in Three Dimensions     |
     |  Version : mpp d R12.0.0   Date: 06/19/2020     |
     |  Revision: 148931          Time: 17:26:40       |
     |                                                 |
     |  Features enabled in this version:              |
     |    Distributed Memory Parallel                  |
     |    CESE CHEMISTRY EM ICFD STOCHASTIC_PARTICLES  |
     |    FFTW (multi-dimensional FFTW Library)        |
     |    ANSYS License (ANSYS202)                     |
     |    BigID  option                                |
     |                                                 |
     |  Licensed to: Norwegian University of Science an|
     |  Issued by  : Pascale.SaneGuttin_02092022       |
     |                                                 |
     |  Platform   : Intel-MPI 2018 Xeon64             |
     |  OS Level   : Linux CentOS 6.5 uom              |
     |  Compiler   : Intel Fortran Compiler 16.0 AVX-2 |
     |  Hostname   : compute-0-0                       |
     |  Precision  : Double precision (I8R8)           |
     |  SVN Version: 148978                            |
     |                                                 |
     |  Unauthorized use infringes LST copyrights      |
     |_________________________________________________|


 Input file: DynaOpt.key                                                                     

 The native file format       : 64-bit small endian
 Memory size from default     :   100000000,            0
 Binary file                  : 32 bit IEEE selected
 d3dump option                : d3dump will be suppressed
 Memory size from default     :   100000000,    100000000

 Memory for the head node
 Memory installed (MB)        :       257787
 Memory available (MB)        :       223496

 ********  notice  ********  notice  ********  notice  ********
 *                                                            *
 * This is the LS-DYNA Finite Element code.                   *
 *                                                            *
 * Neither LST nor the authors assume any responsibility for  *
 * the validity, accuracy, or applicability of any results    *
 * obtained from this system. Users must verify their own     *
 * results.                                                   *
 *                                                            *
 * LST endeavors to make the LS-DYNA code as complete,        *
 * accurate and easy to use as possible.                      *
 * Suggestions and comments are welcomed.  Please report any  *
 * errors encountered in either the documentation or results  *
 * immediately to LST through your site focus.                *
 *                                                            *
 * Copyright (C) 1990-2020                                    *
 * by Livermore Software Technology, LLC                      *
 * All rights reserved                                        *
 *                                                            *
 ********  notice  ********  notice  ********  notice  ********
 
LSTC Environment Variables:
 
LSTC_BINARY=32ieee
LSTC_LICENSE_SERVER=129.241.89.45
LSTC_D3DUMP=off
LSTC_LICENSE=network
 

 Beginning of keyword reader                                   04/08/22 12:49:31
 allocating  memory to   100000000 d     1995258 beginning of keyword reader
 expanding   memory to      273296 d     2167362  
 expanding   memory to      303296 d     2167362  
 expanding   memory to      363296 d     2167362  
 expanding   memory to      383448 d     2167362  
 expanding   memory to      449640 d     2167362  
 expanding   memory to      499928 d     2167362  
 expanding   memory to      520928 d     2167362  
 expanding   memory to      585928 d     2167362  
 expanding   memory to      614712 d     2167362  
 expanding   memory to      729848 d     2167362  
 expanding   memory to      750890 d     2167362  

                                                               04/08/22 12:49:31
 Open include file: mesh_ball_target.key

                                                               04/08/22 12:49:31
 Open include file: mesh_wall.key
 expanding   memory to      779715 d     2167362  
 expanding   memory to      799715 d     2167362  
 expanding   memory to      819715 d     2167362  

********** echo of pfile data **********


*********** end of pfile data **********
 expanding   memory to      850819 d     2167362  
 expanding   memory to      878503 d     2167362  
 expanding   memory to     1183027 d     2167362  
 expanding   memory to     1210711 d     2167362  
 expanding   memory to     1233855 d     2445090  
 expanding   memory to     1314859 d     2445090  
 expanding   memory to     1407435 d     2445090  
 expanding   memory to     1534727 d     2445090  
 expanding   memory to     1585555 d     2445090  
 expanding   memory to     1610035 d     2445090  
 
 *** Warning 10138 (KEY+138)
     *SET_NODE Set number 5 is empty at 6th input
 expanding   memory to     1633235 d     2495932  
 expanding   memory to     1655235 d     2495932  
 expanding   memory to     1677235 d     2495932  
 expanding   memory to     1699235 d     2495932  
 expanding   memory to     1721235 d     2495932  
 expanding   memory to     1743235 d     2495932  
 expanding   memory to     1765235 d     2495932  
 expanding   memory to     1787235 d     2495932  
 expanding   memory to     1809235 d     2495932  
 expanding   memory to     1831235 d     2495932  
 expanding   memory to     1853235 d     2495932  
 expanding   memory to     1875235 d     2495932  
 expanding   memory to     1897235 d     2495932  
 expanding   memory to     1919235 d     2495932  
 expanding   memory to     1957955 d     2495932  
 expanding   memory to     1985675 d     2495932  
 expanding   memory to     2287516 d     2495932  

 Memory required to process keyword     :    2287516  
 Additional dynamic memory required     :    2583954  

 allocating  memory to   100000000 d     1820756 end of keyword reader

 MPP execution with       4 procs

 LS-DYNA will perform a structural only analysis 


 Initial reading of file                                       04/08/22 12:49:31
 LS-DYNA keyword deck by LS-PrePost                                      
                         ls-dyna mpp.148931 d           date 06/19/2020
 expanding   memory to        4305 d     1579236 material, node and element data
 expanding   memory to        4399 d     1579255 mat add general damage 0
 expanding   memory to        4459 d     1579255 material added airbag porosity leakage 
 expanding   memory to        4477 d     1579255 material properties
 expanding   memory to        4495 d     1746850 element data for composite material
 expanding   memory to        4510 d     3006561 gradient of damage data
 expanding   memory to        4676 d     3006570 user control for contact interfaces
 contracting memory to        4662 d     3006570 thermal expansion 0
 expanding   memory to        4668 d     3006570 state of charge expansion 0
 expanding   memory to        4670 d     3006570 cross-sectional force definitions 0
 expanding   memory to       43926 d     3006606 temp index array for node sorting
 contracting memory to        4670 d     3045866 just because?
 expanding   memory to       16242 d     3124396 arbitrary element numbering input
 contracting memory to        4690 d     3805394 spc cards
 contracting memory to        4677 d     3846315 process element material data
 expanding   memory to        6678 d     3846309 load curve data
 contracting memory to        4684 d     3846309 user_define_loading_set
 expanding   memory to        4884 d     3846309 regularize time history data
 contracting memory to        4688 d     3846309 *DEFINE_ELEMENT_DEATH
 expanding   memory to        4937 d     3928085 contact interfaces
 expanding   memory to       84449 d     3928085 implicit contact 1
 expanding   memory to      176877 d     3928085 implicit contact 2
 contracting memory to        4937 d     4066983 before call to elgen
 expanding   memory to        5937 d     4452573 contact segment data 1
 expanding   memory to      216281 d     4762485 contact segment data 3
 contracting memory to        4937 d     4594061 contact definition
 expanding   memory to        4991 d     4594062 rigid body
 expanding   memory to        4995 d     4594707 contact friction
 expanding   memory to        5085 d     4594707 joints
 expanding   memory to        7145 d     4594707 de sld2des
 expanding   memory to        7185 d     4664139 discrete elements regions
 expanding   memory to        7285 d     4664739 rigid bodies for disp. termination
 expanding   memory to        7291 d     8238291 mat add cohesive 0
 expanding   memory to        7297 d     8238291 flexible body 2

 Performing Decomposition -- Phase 1                           04/08/22 12:49:31
 expanding   memory to      164069 d     5343905 decomp scratch 1
 expanding   memory to      295902 d     5343905 decomp reverse connectivity
 expanding   memory to      416261 d     5343906 element ownership

Decomposition region 1:

   Part list

Decomposition region 2:

   Everything

Region  1 is distributed to 4 processors

   With no coordinate transformation

Region  2 is distributed to 4 processors

   With no coordinate transformation

Normalized element costs assigned during decomposition:
            Minumum: 9.997863E-01
            Maximum: 1.000107E+00
 Standard Deviation: 1.310989E-04

 contracting memory to      358303 d     5383166 constraint scratch
 contracting memory to      323686 d     5422422 con segment decomp rewrite 2
 expanding   memory to      358304 d     5422422 shadow node processing
 expanding   memory to      397565 d     5383166 share node processing
 contracting memory to      305579 d     5343914 nodal sharing list

 Memory required for decomposition      :     416261  
 Additional dynamic memory required     :    8633838  

 allocating  memory to   100000000 d     5239756 Allocate memory top of decomps
 expanding   memory to       11573 d     5239756 hex ownership chunk
 contracting memory to           7 d     5233980 material sort chunk
 expanding   memory to          19 d     5233980 material uid
 expanding   memory to          24 d     5246787 nodal force sharing lists 1

 Performing Decomposition -- Phase 2                           04/08/22 12:49:31
 expanding   memory to          30 d     5229917 mat scratch
 expanding   memory to          31 d     6297945 tied nodes scratch
 expanding   memory to          34 d     6297945 tied node scratch
 contracting memory to          30 d     6297945 nodal rigid body scratch
 expanding   memory to        1310 d     6297945 DES sld2des scratch
 expanding   memory to       19462 d     6297945 DES sld2des scratch
 contracting memory to        2462 d     6297945 DES sld2des scratch
 contracting memory to          30 d     6297945 spring/damper scratch
 contracting memory to           1 d     5288813 Performing Decomposition -- Phase 3
 Performing Decomposition -- Phase 3                           04/08/22 12:49:32
 LS-DYNA keyword deck by LS-PrePost                                      
                         ls-dyna mpp.148931 d           date 06/19/2020
 expanding   memory to        4305 d     5288813 material, node and element data
 expanding   memory to        4399 d     5288832 mat add general damage 0
 expanding   memory to        4459 d     5288832 material added airbag porosity leakage 
 expanding   memory to        4477 d     5288832 material properties
 expanding   memory to        4495 d     5328414 element data for composite material
 expanding   memory to        4510 d     5653295 gradient of damage data
 expanding   memory to       17598 d     5696773 user control for contact interfaces
 contracting memory to       17584 d     5696773 thermal expansion 0
 expanding   memory to       17590 d     5696773 state of charge expansion 0
 expanding   memory to       17592 d     5696773 cross-sectional force definitions 0
 expanding   memory to       27152 d     5696809 temp index array for node sorting
 contracting memory to       17592 d     5696809 just because?
 expanding   memory to       20490 d     5715947 arbitrary element numbering input
 contracting memory to       17612 d    30293953 spc cards
 contracting memory to       17599 d    30293953 d3thdt storage
 expanding   memory to       17600 d    30382480 process element material data
 expanding   memory to       19601 d    30382474 load curve data
 contracting memory to       17607 d    30382474 user_define_loading_set
 expanding   memory to       17807 d    30382474 regularize time history data
 contracting memory to       17611 d    30382474 *DEFINE_ELEMENT_DEATH
 expanding   memory to       17667 d    30401595 MPP copy of tim vector
 expanding   memory to       17916 d    30365153 contact interfaces
 expanding   memory to       38036 d    30365153 implicit contact 1
 expanding   memory to       61202 d    30365153 implicit contact 2
 contracting memory to       18916 d    30642552 contact segment data 1
 expanding   memory to       70780 d    30905490 contact segment data 3
 expanding   memory to      163356 d    30774790 read contacts, eroding check
 expanding   memory to      253361 d    30774790 eroding neighbors 2
 expanding   memory to      273648 d    30774790 eroding neighbors
 contracting memory to      111354 d    31207245 contact definition
 expanding   memory to      111360 d    31400816 contact history
 expanding   memory to      111414 d    31480635 rigid body
 expanding   memory to      111432 d    31480635 rbe2 scratch
 contracting memory to      111418 d    31543386 contact friction
 expanding   memory to      111508 d    31543392 joints
 expanding   memory to      113568 d    31543392 de sld2des
 expanding   memory to      113608 d    31552086 discrete elements regions
 expanding   memory to      113708 d    31769622 rigid bodies for disp. termination
 expanding   memory to      114086 d    31769622 save d3plot control data
 
 *** Warning 40859 (SOL+859)
     Cannot find elements of slave segment of interface 2
 deleted segment ID          n1          n2          n3          n4
       1 310000 310000 310000 310000
       2 310001 310001 310001 310001
       3 310002 310002 310002 310002
       4 310003 310003 310003 310003
       5 310004 310004 310004 310004
       6 310005 310005 310005 310005
       7 310006 310006 310006 310006
       8 310007 310007 310007 310007
       9 310008 310008 310008 310008
       10 310009 310009 310009 310009
       11 310010 310010 310010 310010
       12 310011 310011 310011 310011
       13 310012 310012 310012 310012
       14 310013 310013 310013 310013
       15 310014 310014 310014 310014
       16 310015 310015 310015 310015
       17 310016 310016 310016 310016
       18 310017 310017 310017 310017
       19 310018 310018 310018 310018
       20 310019 310019 310019 310019
       21 310020 310020 310020 310020
       22 310021 310021 310021 310021
       23 310022 310022 310022 310022
       24 310023 310023 310023 310023
       25 310024 310024 310024 310024
       26 310025 310025 310025 310025
       27 310026 310026 310026 310026
       28 310027 310027 310027 310027
       29 310028 310028 310028 310028
       30 310029 310029 310029 310029
       31 310030 310030 310030 310030
       32 310031 310031 310031 310031
       33 310032 310032 310032 310032
       34 310033 310033 310033 310033
       35 310034 310034 310034 310034
       36 310035 310035 310035 310035
       37 310036 310036 310036 310036
       38 310037 310037 310037 310037
       39 310038 310038 310038 310038
       40 310039 310039 310039 310039
       41 310040 310040 310040 310040
       42 310041 310041 310041 310041
       43 310042 310042 310042 310042
       44 310043 310043 310043 310043
       45 310044 310044 310044 310044
       46 310045 310045 310045 310045
       47 310046 310046 310046 310046
       48 310047 310047 310047 310047
       49 310048 310048 310048 310048
       50 310049 310049 310049 310049
       51 310050 310050 310050 310050
       52 310051 310051 310051 310051
       53 310052 310052 310052 310052
       54 310053 310053 310053 310053
       55 310054 310054 310054 310054
       56 310055 310055 310055 310055
       57 310056 310056 310056 310056
       58 310057 310057 310057 310057
       59 310058 310058 310058 310058
       60 310059 310059 310059 310059
       61 310060 310060 310060 310060
       62 310061 310061 310061 310061
       63 310062 310062 310062 310062
       64 310063 310063 310063 310063
       65 310064 310064 310064 310064
       66 310065 310065 310065 310065
       67 310066 310066 310066 310066
       68 310067 310067 310067 310067
       69 310068 310068 310068 310068
       70 310069 310069 310069 310069
       71 310070 310070 310070 310070
       72 310071 310071 310071 310071
       73 310072 310072 310072 310072
       74 310073 310073 310073 310073
       75 310074 310074 310074 310074
       76 310075 310075 310075 310075
       77 310076 310076 310076 310076
       78 310077 310077 310077 310077
       79 310078 310078 310078 310078
       80 310079 310079 310079 310079
       81 310080 310080 310080 310080
       82 310081 310081 310081 310081
       83 310082 310082 310082 310082
       84 310083 310083 310083 310083
       85 310084 310084 310084 310084
       86 310085 310085 310085 310085
       87 310086 310086 310086 310086
       88 310087 310087 310087 310087
       89 310088 310088 310088 310088
       90 310089 310089 310089 310089
       91 310090 310090 310090 310090
       92 310091 310091 310091 310091
       93 310092 310092 310092 310092
       94 310093 310093 310093 310093
       95 310094 310094 310094 310094
       96 310095 310095 310095 310095
       97 310096 310096 310096 310096
       98 310097 310097 310097 310097
       99 310098 310098 310098 310098
       100 310099 310099 310099 310099
       101 310100 310100 310100 310100
       102 310101 310101 310101 310101
       103 310102 310102 310102 310102
       104 310103 310103 310103 310103
       105 310104 310104 310104 310104
       106 310105 310105 310105 310105
       107 310106 310106 310106 310106
       108 310107 310107 310107 310107
       109 310108 310108 310108 310108
       110 310109 310109 310109 310109
       111 310110 310110 310110 310110
       112 310111 310111 310111 310111
       113 310112 310112 310112 310112
       114 310113 310113 310113 310113
       115 310114 310114 310114 310114
       116 310115 310115 310115 310115
       117 310116 310116 310116 310116
       118 310117 310117 310117 310117
       119 310118 310118 310118 310118
       120 310119 310119 310119 310119
       121 310120 310120 310120 310120
       122 310121 310121 310121 310121
       123 310122 310122 310122 310122
       124 310123 310123 310123 310123
       125 310124 310124 310124 310124
       126 310125 310125 310125 310125
       127 310126 310126 310126 310126
       128 310127 310127 310127 310127
       129 310128 310128 310128 310128
       130 310129 310129 310129 310129
       131 310130 310130 310130 310130
       132 310131 310131 310131 310131
       133 310132 310132 310132 310132
       134 310133 310133 310133 310133
       135 310134 310134 310134 310134
       136 310135 310135 310135 310135
       137 310136 310136 310136 310136
       138 310137 310137 310137 310137
       139 310138 310138 310138 310138
       140 310139 310139 310139 310139
       141 310140 310140 310140 310140
       142 310141 310141 310141 310141
       143 310142 310142 310142 310142
       144 310143 310143 310143 310143
       145 310144 310144 310144 310144
       146 310145 310145 310145 310145
       147 310146 310146 310146 310146
       148 310147 310147 310147 310147
       149 310148 310148 310148 310148
       150 310149 310149 310149 310149
       151 310150 310150 310150 310150
       152 310151 310151 310151 310151
       153 310152 310152 310152 310152
       154 310153 310153 310153 310153
       155 310154 310154 310154 310154
       156 310155 310155 310155 310155
       157 310156 310156 310156 310156
       158 310157 310157 310157 310157
       159 310158 310158 310158 310158
       160 310159 310159 310159 310159
       161 310160 310160 310160 310160
       162 310161 310161 310161 310161
       163 310162 310162 310162 310162
       164 310163 310163 310163 310163
       165 310164 310164 310164 310164
       166 310165 310165 310165 310165
       167 310166 310166 310166 310166
       168 310167 310167 310167 310167
       169 310168 310168 310168 310168
       170 310169 310169 310169 310169
       171 310170 310170 310170 310170
       172 310171 310171 310171 310171
       173 310172 310172 310172 310172
       174 310173 310173 310173 310173
       175 310174 310174 310174 310174
       176 310175 310175 310175 310175
       177 310176 310176 310176 310176
       178 310177 310177 310177 310177
       179 310178 310178 310178 310178
       180 310179 310179 310179 310179
       181 310180 310180 310180 310180
       182 310181 310181 310181 310181
       183 310182 310182 310182 310182
       184 310183 310183 310183 310183
       185 310184 310184 310184 310184
       186 310185 310185 310185 310185
       187 310186 310186 310186 310186
       188 310187 310187 310187 310187
       189 310188 310188 310188 310188
       190 310189 310189 310189 310189
       191 310190 310190 310190 310190
       192 310191 310191 310191 310191
       193 310192 310192 310192 310192
       194 310193 310193 310193 310193
       195 310194 310194 310194 310194
       196 310195 310195 310195 310195
       197 310196 310196 310196 310196
       198 310197 310197 310197 310197
       199 310198 310198 310198 310198
       200 310199 310199 310199 310199
       201 310200 310200 310200 310200
       202 310201 310201 310201 310201
       203 310202 310202 310202 310202
       204 310203 310203 310203 310203
       205 310204 310204 310204 310204
       206 310205 310205 310205 310205
       207 310206 310206 310206 310206
       208 310207 310207 310207 310207
       209 310208 310208 310208 310208
       210 310209 310209 310209 310209
       211 310210 310210 310210 310210
       212 310211 310211 310211 310211
       213 310212 310212 310212 310212
       214 310213 310213 310213 310213
       215 310214 310214 310214 310214
       216 310215 310215 310215 310215
       217 310216 310216 310216 310216
       218 310217 310217 310217 310217
       219 310218 310218 310218 310218
       220 310219 310219 310219 310219
       221 310220 310220 310220 310220
       222 310221 310221 310221 310221
       223 310222 310222 310222 310222
       224 310223 310223 310223 310223
       225 310224 310224 310224 310224
       226 310225 310225 310225 310225
       227 310226 310226 310226 310226
       228 310227 310227 310227 310227
       229 310228 310228 310228 310228
       230 310229 310229 310229 310229
       231 310230 310230 310230 310230
       232 310231 310231 310231 310231
       233 310232 310232 310232 310232
       234 310233 310233 310233 310233
       235 310234 310234 310234 310234
       236 310235 310235 310235 310235
       237 310236 310236 310236 310236
       238 310237 310237 310237 310237
       239 310238 310238 310238 310238
       240 310239 310239 310239 310239
       241 310240 310240 310240 310240
       242 310241 310241 310241 310241
       243 310242 310242 310242 310242
       244 310243 310243 310243 310243
       245 310244 310244 310244 310244
       246 310245 310245 310245 310245
       247 310246 310246 310246 310246
       248 310247 310247 310247 310247
       249 310248 310248 310248 310248
       250 310249 310249 310249 310249
       251 310250 310250 310250 310250
       252 310251 310251 310251 310251
       253 310252 310252 310252 310252
       254 310253 310253 310253 310253
       255 310254 310254 310254 310254
       256 310255 310255 310255 310255
       257 310256 310256 310256 310256
       258 310257 310257 310257 310257
       259 310258 310258 310258 310258
       260 310259 310259 310259 310259
       261 310260 310260 310260 310260
       262 310261 310261 310261 310261
       263 310262 310262 310262 310262
       264 310263 310263 310263 310263
       265 310264 310264 310264 310264
       266 310265 310265 310265 310265
       267 310266 310266 310266 310266
       268 310267 310267 310267 310267
       269 310268 310268 310268 310268
       270 310269 310269 310269 310269
       271 310270 310270 310270 310270
       272 310271 310271 310271 310271
       273 310272 310272 310272 310272
       274 310273 310273 310273 310273
       275 310274 310274 310274 310274
       276 310275 310275 310275 310275
       277 310276 310276 310276 310276
       278 310277 310277 310277 310277
       279 310278 310278 310278 310278
       280 310279 310279 310279 310279
       281 310280 310280 310280 310280
       282 310281 310281 310281 310281
       283 310282 310282 310282 310282
       284 310283 310283 310283 310283
       285 310284 310284 310284 310284
       286 310285 310285 310285 310285
       287 310286 310286 310286 310286
       288 310287 310287 310287 310287
       289 310288 310288 310288 310288
       290 310289 310289 310289 310289
       291 310290 310290 310290 310290
       292 310291 310291 310291 310291
       293 310292 310292 310292 310292
       294 310293 310293 310293 310293
       295 310294 310294 310294 310294
       296 310295 310295 310295 310295
       297 310296 310296 310296 310296
       298 310297 310297 310297 310297
       299 310298 310298 310298 310298
       300 310299 310299 310299 310299
       301 310300 310300 310300 310300
       302 310301 310301 310301 310301
       303 310302 310302 310302 310302
       304 310303 310303 310303 310303
       305 310304 310304 310304 310304
       306 310305 310305 310305 310305
       307 310306 310306 310306 310306
       308 310307 310307 310307 310307
       309 310308 310308 310308 310308
       310 310309 310309 310309 310309
       311 310310 310310 310310 310310
       312 310311 310311 310311 310311
       313 310312 310312 310312 310312
       314 310313 310313 310313 310313
       315 310314 310314 310314 310314
       316 310315 310315 310315 310315
       317 310316 310316 310316 310316
       318 310317 310317 310317 310317
       319 310318 310318 310318 310318
       320 310319 310319 310319 310319
       321 310320 310320 310320 310320
       322 310321 310321 310321 310321
       323 310322 310322 310322 310322
       324 310323 310323 310323 310323
       325 310324 310324 310324 310324
       326 310325 310325 310325 310325
       327 310326 310326 310326 310326
       328 310327 310327 310327 310327
       329 310328 310328 310328 310328
       330 310329 310329 310329 310329
       331 310330 310330 310330 310330
       332 310331 310331 310331 310331
       333 310332 310332 310332 310332
       334 310333 310333 310333 310333
       335 310334 310334 310334 310334
       336 310335 310335 310335 310335
       337 310336 310336 310336 310336
       338 310337 310337 310337 310337
       339 310338 310338 310338 310338
       340 310339 310339 310339 310339
       341 310340 310340 310340 310340
       342 310341 310341 310341 310341
       343 310342 310342 310342 310342
       344 310343 310343 310343 310343
       345 310344 310344 310344 310344
       346 310345 310345 310345 310345
       347 310346 310346 310346 310346
       348 310347 310347 310347 310347
       349 310348 310348 310348 310348
       350 310349 310349 310349 310349
       351 310350 310350 310350 310350
       352 310351 310351 310351 310351
       353 310352 310352 310352 310352
       354 310353 310353 310353 310353
       355 310354 310354 310354 310354
       356 310355 310355 310355 310355
       357 310356 310356 310356 310356
       358 310357 310357 310357 310357
       359 310358 310358 310358 310358
       360 310359 310359 310359 310359
       361 310360 310360 310360 310360
       362 310361 310361 310361 310361
       363 310362 310362 310362 310362
       364 310363 310363 310363 310363
       365 310364 310364 310364 310364
       366 310365 310365 310365 310365
       367 310366 310366 310366 310366
       368 310367 310367 310367 310367
       369 310368 310368 310368 310368
       370 310369 310369 310369 310369
       371 310370 310370 310370 310370
       372 310371 310371 310371 310371
       373 310372 310372 310372 310372
       374 310373 310373 310373 310373
       375 310374 310374 310374 310374
       376 310375 310375 310375 310375
       377 310376 310376 310376 310376
       378 310377 310377 310377 310377
       379 310378 310378 310378 310378
       380 310379 310379 310379 310379
       381 310380 310380 310380 310380
       382 310381 310381 310381 310381
       383 310382 310382 310382 310382
       384 310383 310383 310383 310383
       385 310384 310384 310384 310384
       386 310385 310385 310385 310385
       387 310386 310386 310386 310386
       388 310387 310387 310387 310387
       389 310388 310388 310388 310388
       390 310389 310389 310389 310389
       391 310390 310390 310390 310390
       392 310391 310391 310391 310391
       393 310392 310392 310392 310392
       394 310393 310393 310393 310393
       395 310394 310394 310394 310394
       396 310395 310395 310395 310395
       397 310396 310396 310396 310396
       398 310397 310397 310397 310397
       399 310398 310398 310398 310398
       400 310399 310399 310399 310399
       401 310400 310400 310400 310400
       402 310401 310401 310401 310401
       403 310402 310402 310402 310402
       404 310403 310403 310403 310403
       405 310404 310404 310404 310404
       406 310405 310405 310405 310405
       407 310406 310406 310406 310406
       408 310407 310407 310407 310407
       409 310408 310408 310408 310408
       410 310409 310409 310409 310409
       411 310410 310410 310410 310410
       412 310411 310411 310411 310411
       413 310412 310412 310412 310412
       414 310413 310413 310413 310413
       415 310414 310414 310414 310414
       416 310415 310415 310415 310415
       417 310416 310416 310416 310416
       418 310417 310417 310417 310417
       419 310418 310418 310418 310418
       420 310419 310419 310419 310419
       421 310420 310420 310420 310420
       422 310421 310421 310421 310421
       423 310422 310422 310422 310422
       424 310423 310423 310423 310423
       425 310424 310424 310424 310424
       426 310425 310425 310425 310425
       427 310426 310426 310426 310426
       428 310427 310427 310427 310427
       429 310428 310428 310428 310428
       430 310429 310429 310429 310429
       431 310430 310430 310430 310430
       432 310431 310431 310431 310431
       433 310432 310432 310432 310432
       434 310433 310433 310433 310433
       435 310434 310434 310434 310434
       436 310435 310435 310435 310435
       437 310436 310436 310436 310436
       438 310437 310437 310437 310437
       439 310438 310438 310438 310438
       440 310439 310439 310439 310439
       441 310440 310440 310440 310440
       442 310441 310441 310441 310441
       443 310442 310442 310442 310442
       444 310443 310443 310443 310443
       445 310444 310444 310444 310444
       446 310445 310445 310445 310445
       447 310446 310446 310446 310446
       448 310447 310447 310447 310447
       449 310448 310448 310448 310448
       450 310449 310449 310449 310449
       451 310450 310450 310450 310450
       452 310451 310451 310451 310451
       453 310452 310452 310452 310452
       454 310453 310453 310453 310453
       455 310454 310454 310454 310454
       456 310455 310455 310455 310455
       457 310456 310456 310456 310456
       458 310457 310457 310457 310457
       459 310458 310458 310458 310458
       460 310459 310459 310459 310459
       461 310460 310460 310460 310460
       462 310461 310461 310461 310461
       463 310462 310462 310462 310462
       464 310463 310463 310463 310463
       465 310464 310464 310464 310464
       466 310465 310465 310465 310465
       467 310466 310466 310466 310466
       468 310467 310467 310467 310467
       469 310468 310468 310468 310468
       470 310469 310469 310469 310469
       471 310470 310470 310470 310470
       472 310471 310471 310471 310471
       473 310472 310472 310472 310472
       474 310473 310473 310473 310473
       475 310474 310474 310474 310474
       476 310475 310475 310475 310475
       477 310476 310476 310476 310476
       478 310477 310477 310477 310477
       479 310478 310478 310478 310478
       480 310479 310479 310479 310479
       481 310480 310480 310480 310480
       482 310481 310481 310481 310481
       483 310482 310482 310482 310482
       484 310483 310483 310483 310483
       485 310484 310484 310484 310484
       486 310485 310485 310485 310485
       487 310486 310486 310486 310486
       488 310487 310487 310487 310487
       489 310488 310488 310488 310488
       490 310489 310489 310489 310489
       491 310490 310490 310490 310490
       492 310491 310491 310491 310491
       493 310492 310492 310492 310492
       494 310493 310493 310493 310493
       495 310494 310494 310494 310494
       496 310495 310495 310495 310495
       497 310496 310496 310496 310496
       498 310497 310497 310497 310497
       499 310498 310498 310498 310498
       500 310499 310499 310499 310499
       501 310500 310500 310500 310500
       502 310501 310501 310501 310501
       503 310502 310502 310502 310502
       504 310503 310503 310503 310503
       505 310504 310504 310504 310504
       506 310505 310505 310505 310505
       507 310506 310506 310506 310506
       508 310507 310507 310507 310507
       509 310508 310508 310508 310508
       510 310509 310509 310509 310509
       511 310510 310510 310510 310510
       512 310511 310511 310511 310511
       513 310512 310512 310512 310512
       514 310513 310513 310513 310513
       515 310514 310514 310514 310514
       516 310515 310515 310515 310515
       517 310516 310516 310516 310516
       518 310517 310517 310517 310517
       519 310518 310518 310518 310518
       520 310519 310519 310519 310519
       521 310520 310520 310520 310520
       522 310521 310521 310521 310521
       523 310522 310522 310522 310522
       524 310523 310523 310523 310523
       525 310524 310524 310524 310524
       526 310525 310525 310525 310525
       527 310526 310526 310526 310526
       528 310527 310527 310527 310527
       529 310528 310528 310528 310528
       530 310529 310529 310529 310529
       531 310530 310530 310530 310530
       532 310531 310531 310531 310531
       533 310532 310532 310532 310532
       534 310533 310533 310533 310533
       535 310534 310534 310534 310534
       536 310535 310535 310535 310535
       537 310536 310536 310536 310536
       538 310537 310537 310537 310537
       539 310538 310538 310538 310538
       540 310539 310539 310539 310539
       541 310540 310540 310540 310540
       542 310541 310541 310541 310541
       543 310542 310542 310542 310542
       544 310543 310543 310543 310543
       545 310544 310544 310544 310544
       546 310545 310545 310545 310545
       547 310546 310546 310546 310546
       548 310547 310547 310547 310547
       549 310548 310548 310548 310548
       550 310549 310549 310549 310549
       551 310550 310550 310550 310550
       552 310551 310551 310551 310551
       553 310552 310552 310552 310552
       554 310553 310553 310553 310553
       555 310554 310554 310554 310554
       556 310555 310555 310555 310555
       557 310556 310556 310556 310556
       558 310557 310557 310557 310557
       559 310558 310558 310558 310558
       560 310559 310559 310559 310559
       561 310560 310560 310560 310560
       562 310561 310561 310561 310561
       563 310562 310562 310562 310562
       564 310563 310563 310563 310563
       565 310564 310564 310564 310564
       566 310565 310565 310565 310565
       567 310566 310566 310566 310566
       568 310567 310567 310567 310567
       569 310568 310568 310568 310568
       570 310569 310569 310569 310569
       571 310570 310570 310570 310570
       572 310571 310571 310571 310571
       573 310572 310572 310572 310572
       574 310573 310573 310573 310573
       575 310574 310574 310574 310574
       576 310575 310575 310575 310575
       577 310576 310576 310576 310576
       578 310577 310577 310577 310577
       579 310578 310578 310578 310578
       580 310579 310579 310579 310579
       581 310580 310580 310580 310580
       582 310581 310581 310581 310581
       583 310582 310582 310582 310582
       584 310583 310583 310583 310583
       585 310584 310584 310584 310584
       586 310585 310585 310585 310585
       587 310586 310586 310586 310586
       588 310587 310587 310587 310587
       589 310588 310588 310588 310588
       590 310589 310589 310589 310589
       591 310590 310590 310590 310590
       592 310591 310591 310591 310591
       593 310592 310592 310592 310592
       594 310593 310593 310593 310593
       595 310594 310594 310594 310594
       596 310595 310595 310595 310595
       597 310596 310596 310596 310596
       598 310597 310597 310597 310597
       599 310598 310598 310598 310598
       600 310599 310599 310599 310599
       601 310600 310600 310600 310600
       602 310601 310601 310601 310601
       603 310602 310602 310602 310602
       604 310603 310603 310603 310603
       605 310604 310604 310604 310604
       606 310605 310605 310605 310605
       607 310606 310606 310606 310606
       608 310607 310607 310607 310607
       609 310608 310608 310608 310608
       610 310609 310609 310609 310609
       611 310610 310610 310610 310610
       612 310611 310611 310611 310611
       613 310612 310612 310612 310612
       614 310613 310613 310613 310613
       615 310614 310614 310614 310614
       616 310615 310615 310615 310615
       617 310616 310616 310616 310616
       618 310617 310617 310617 310617
       619 310618 310618 310618 310618
       620 310619 310619 310619 310619
       621 310620 310620 310620 310620
       622 310621 310621 310621 310621
       623 310622 310622 310622 310622
       624 310623 310623 310623 310623
       625 310624 310624 310624 310624
       626 310625 310625 310625 310625
       627 310626 310626 310626 310626
       628 310627 310627 310627 310627
       629 310628 310628 310628 310628
       630 310629 310629 310629 310629
       631 310630 310630 310630 310630
       632 310631 310631 310631 310631
       633 310632 310632 310632 310632
       634 310633 310633 310633 310633
       635 310634 310634 310634 310634
       636 310635 310635 310635 310635
       637 310636 310636 310636 310636
       638 310637 310637 310637 310637
       639 310638 310638 310638 310638
       640 310639 310639 310639 310639
       641 310641 310641 310641 310641
       642 310650 310650 310650 310650
       643 310654 310654 310654 310654
       644 310676 310676 310676 310676
       645 310687 310687 310687 310687
       646 310691 310691 310691 310691
       647 310712 310712 310712 310712
       648 310728 310728 310728 310728
       649 310750 310750 310750 310750
       650 310753 310753 310753 310753
       651 310763 310763 310763 310763
       652 310767 310767 310767 310767
       653 310788 310788 310788 310788
       654 310800 310800 310800 310800
       655 310804 310804 310804 310804
       656 310825 310825 310825 310825
       657 310837 310837 310837 310837
       658 310841 310841 310841 310841
       659 310847 310847 310847 310847
       660 310863 310863 310863 310863
       661 310875 310875 310875 310875
       662 310879 310879 310879 310879
       663 310901 310901 310901 310901
       664 310913 310913 310913 310913
       665 310919 310919 310919 310919
       666 310941 310941 310941 310941
       667 310954 310954 310954 310954
       668 310958 310958 310958 310958
       669 310980 310980 310980 310980
       670 310990 310990 310990 310990
       671 310993 310993 310993 310993
       672 311009 311009 311009 311009
       673 311014 311014 311014 311014
       674 311024 311024 311024 311024
       675 311031 311031 311031 311031
       676 311048 311048 311048 311048
       677 311053 311053 311053 311053
       678 311056 311056 311056 311056
       679 311066 311066 311066 311066
       680 311070 311070 311070 311070
       681 311087 311087 311087 311087
       682 311092 311092 311092 311092
       683 311106 311106 311106 311106
       684 311108 311108 311108 311108
       685 311129 311129 311129 311129
       686 311142 311142 311142 311142
       687 311146 311146 311146 311146
       688 311168 311168 311168 311168
       689 311181 311181 311181 311181
       690 311185 311185 311185 311185
       691 311207 311207 311207 311207
       692 311216 311216 311216 311216
       693 311223 311223 311223 311223
       694 311245 311245 311245 311245
       695 311258 311258 311258 311258
       696 311262 311262 311262 311262
       697 311282 311282 311282 311282
       698 311292 311292 311292 311292
       699 311296 311296 311296 311296
       700 311318 311318 311318 311318
       701 311328 311328 311328 311328
       702 311332 311332 311332 311332
       703 311354 311354 311354 311354
       704 311365 311365 311365 311365
       705 311369 311369 311369 311369
       706 311391 311391 311391 311391
       707 311398 311398 311398 311398
       708 311406 311406 311406 311406
       709 311428 311428 311428 311428
       710 311438 311438 311438 311438
       711 311442 311442 311442 311442
       712 311464 311464 311464 311464
       713 311475 311475 311475 311475
       714 311479 311479 311479 311479
       715 311501 311501 311501 311501
       716 311505 311505 311505 311505
       717 311510 311510 311510 311510
       718 311517 311517 311517 311517
       719 311539 311539 311539 311539
       720 311550 311550 311550 311550
       721 311554 311554 311554 311554
       722 311575 311575 311575 311575
       723 311578 311578 311578 311578
       724 311586 311586 311586 311586
       725 311590 311590 311590 311590
       726 311601 311601 311601 311601
       727 311612 311612 311612 311612
       728 311616 311616 311616 311616
       729 311625 311625 311625 311625
       730 311629 311629 311629 311629
       731 311639 311639 311639 311639
       732 311650 311650 311650 311650
       733 311661 311661 311661 311661
       734 311665 311665 311665 311665
       735 311676 311676 311676 311676
       736 311687 311687 311687 311687
       737 311697 311697 311697 311697
       738 311701 311701 311701 311701
       739 311712 311712 311712 311712
       740 311723 311723 311723 311723
       741 311727 311727 311727 311727
       742 311736 311736 311736 311736
       743 311740 311740 311740 311740
       744 311751 311751 311751 311751
       745 311762 311762 311762 311762
       746 311776 311776 311776 311776
       747 311780 311780 311780 311780
       748 311790 311790 311790 311790
       749 311801 311801 311801 311801
       750 311817 311817 311817 311817
       751 311828 311828 311828 311828
       752 311839 311839 311839 311839
       753 311842 311842 311842 311842
       754 311843 311843 311843 311843
       755 311844 311844 311844 311844
       756 311852 311852 311852 311852
       757 311856 311856 311856 311856
       758 311878 311878 311878 311878
       759 311892 311892 311892 311892
       760 311893 311893 311893 311893
       761 311914 311914 311914 311914
       762 311917 311917 311917 311917
       763 311927 311927 311927 311927
       764 311931 311931 311931 311931
       765 311953 311953 311953 311953
       766 311968 311968 311968 311968
       767 311972 311972 311972 311972
       768 311994 311994 311994 311994
       769 312007 312007 312007 312007
       770 312011 312011 312011 312011
       771 312033 312033 312033 312033
       772 312045 312045 312045 312045
       773 312049 312049 312049 312049
       774 312071 312071 312071 312071
       775 312081 312081 312081 312081
       776 312085 312085 312085 312085
       777 312107 312107 312107 312107
       778 312117 312117 312117 312117
       779 312121 312121 312121 312121
       780 312142 312142 312142 312142
       781 312153 312153 312153 312153
       782 312157 312157 312157 312157
       783 312179 312179 312179 312179
       784 312191 312191 312191 312191
       785 312195 312195 312195 312195
       786 312217 312217 312217 312217
       787 312228 312228 312228 312228
       788 312232 312232 312232 312232
       789 312254 312254 312254 312254
       790 312264 312264 312264 312264
       791 312268 312268 312268 312268
       792 312290 312290 312290 312290
       793 312301 312301 312301 312301
       794 312305 312305 312305 312305
       795 312327 312327 312327 312327
       796 312340 312340 312340 312340
       797 312344 312344 312344 312344
       798 312366 312366 312366 312366
       799 312378 312378 312378 312378
       800 312382 312382 312382 312382
       801 312404 312404 312404 312404
       802 312408 312408 312408 312408
       803 312416 312416 312416 312416
       804 312441 312441 312441 312441
       805 312451 312451 312451 312451
       806 312476 312476 312476 312476
       807 312485 312485 312485 312485
       808 312511 312511 312511 312511
       809 312523 312523 312523 312523
       810 312549 312549 312549 312549
       811 312558 312558 312558 312558
       812 312582 312582 312582 312582
       813 312593 312593 312593 312593
       814 312619 312619 312619 312619
       815 312632 312632 312632 312632
       816 312643 312643 312643 312643
       817 312657 312657 312657 312657
       818 312667 312667 312667 312667
       819 312679 312679 312679 312679
       820 312693 312693 312693 312693
       821 312706 312706 312706 312706
       822 312716 312716 312716 312716
       823 312730 312730 312730 312730
       824 312740 312740 312740 312740
       825 312751 312751 312751 312751
       826 312765 312765 312765 312765
       827 312768 312768 312768 312768
       828 312776 312776 312776 312776
       829 312786 312786 312786 312786
       830 312800 312800 312800 312800
       831 312804 312804 312804 312804
       832 312805 312805 312805 312805
       833 312812 312812 312812 312812
       834 312837 312837 312837 312837
       835 312840 312840 312840 312840
       836 312848 312848 312848 312848
       837 312857 312857 312857 312857
       838 312874 312874 312874 312874
       839 312883 312883 312883 312883
       840 312893 312893 312893 312893
       841 312909 312909 312909 312909
       842 312923 312923 312923 312923
       843 312933 312933 312933 312933
       844 312949 312949 312949 312949
       845 312959 312959 312959 312959
       846 312969 312969 312969 312969
       847 312985 312985 312985 312985
       848 312996 312996 312996 312996
       849 313006 313006 313006 313006
       850 313022 313022 313022 313022
       851 313034 313034 313034 313034
       852 313044 313044 313044 313044
       853 313060 313060 313060 313060
       854 313070 313070 313070 313070
       855 313080 313080 313080 313080
       856 313096 313096 313096 313096
       857 313108 313108 313108 313108
       858 313117 313117 313117 313117
       859 313133 313133 313133 313133
       860 313144 313144 313144 313144
       861 313154 313154 313154 313154
       862 313170 313170 313170 313170
       863 313180 313180 313180 313180
       864 313188 313188 313188 313188
       865 313204 313204 313204 313204
       866 313213 313213 313213 313213
       867 313223 313223 313223 313223
       868 313239 313239 313239 313239
       869 313243 313243 313243 313243
       870 313254 313254 313254 313254
       871 313263 313263 313263 313263
       872 313279 313279 313279 313279
       873 313290 313290 313290 313290
       874 313300 313300 313300 313300
       875 313316 313316 313316 313316
       876 313326 313326 313326 313326
       877 313336 313336 313336 313336
       878 313352 313352 313352 313352
       879 313372 313372 313372 313372
       880 313388 313388 313388 313388
       881 313408 313408 313408 313408
       882 313423 313423 313423 313423
       883 313445 313445 313445 313445
       884 313461 313461 313461 313461
       885 313480 313480 313480 313480
       886 313496 313496 313496 313496
       887 313500 313500 313500 313500
       888 313519 313519 313519 313519
       889 313535 313535 313535 313535
       890 313557 313557 313557 313557
       891 313573 313573 313573 313573
       892 313597 313597 313597 313597
       893 313613 313613 313613 313613
       894 313633 313633 313633 313633
       895 313648 313648 313648 313648
       896 313670 313670 313670 313670
       897 313685 313685 313685 313685
       898 313709 313709 313709 313709
       899 313713 313713 313713 313713
       900 313724 313724 313724 313724
       901 313750 313750 313750 313750
       902 313754 313754 313754 313754
       903 313765 313765 313765 313765
       904 313788 313788 313788 313788
       905 313789 313789 313789 313789
       906 313804 313804 313804 313804
       907 313828 313828 313828 313828
       908 313829 313829 313829 313829
       909 313844 313844 313844 313844
       910 313866 313866 313866 313866
       911 313868 313868 313868 313868
       912 313883 313883 313883 313883
       913 313890 313890 313890 313890
       914 313910 313910 313910 313910
       915 313911 313911 313911 313911
       916 313926 313926 313926 313926
       917 313947 313947 313947 313947
       918 313948 313948 313948 313948
       919 313964 313964 313964 313964
       920 313988 313988 313988 313988
       921 313989 313989 313989 313989
       922 314004 314004 314004 314004
       923 314025 314025 314025 314025
       924 314026 314026 314026 314026
       925 314041 314041 314041 314041
       926 314064 314064 314064 314064
       927 314065 314065 314065 314065
       928 314080 314080 314080 314080
       929 314100 314100 314100 314100
       930 314101 314101 314101 314101
       931 314117 314117 314117 314117
       932 314142 314142 314142 314142
       933 314143 314143 314143 314143
       934 314158 314158 314158 314158
       935 314176 314176 314176 314176
       936 314177 314177 314177 314177
       937 314193 314193 314193 314193
       938 314215 314215 314215 314215
       939 314216 314216 314216 314216
       940 314231 314231 314231 314231
       941 314253 314253 314253 314253
       942 314254 314254 314254 314254
       943 314270 314270 314270 314270
       944 314275 314275 314275 314275
       945 314294 314294 314294 314294
       946 314295 314295 314295 314295
       947 314310 314310 314310 314310
       948 314331 314331 314331 314331
       949 314332 314332 314332 314332
       950 314348 314348 314348 314348
       951 314370 314370 314370 314370
       952 314371 314371 314371 314371
       953 314386 314386 314386 314386
       954 314389 314389 314389 314389
       955 314409 314409 314409 314409
       956 314410 314410 314410 314410
       957 314425 314425 314425 314425
       958 314447 314447 314447 314447
       959 314448 314448 314448 314448
       960 314462 314462 314462 314462
       961 314486 314486 314486 314486
       962 314487 314487 314487 314487
       963 314501 314501 314501 314501
       964 314507 314507 314507 314507
       965 314527 314527 314527 314527
       966 314528 314528 314528 314528
       967 314542 314542 314542 314542
       968 314565 314565 314565 314565
       969 314566 314566 314566 314566
       970 314581 314581 314581 314581
       971 314606 314606 314606 314606
       972 314607 314607 314607 314607
       973 314622 314622 314622 314622
       974 314647 314647 314647 314647
       975 314648 314648 314648 314648
       976 314663 314663 314663 314663
       977 314671 314671 314671 314671
       978 314689 314689 314689 314689
       979 314690 314690 314690 314690
       980 314705 314705 314705 314705
       981 314712 314712 314712 314712
       982 314729 314729 314729 314729
       983 314730 314730 314730 314730
       984 314745 314745 314745 314745
       985 314754 314754 314754 314754
       986 314771 314771 314771 314771
       987 314772 314772 314772 314772
       988 314787 314787 314787 314787
       989 314795 314795 314795 314795
       990 314812 314812 314812 314812
       991 314813 314813 314813 314813
       992 314828 314828 314828 314828
       993 314836 314836 314836 314836
       994 314853 314853 314853 314853
       995 314854 314854 314854 314854
       996 314869 314869 314869 314869
       997 314894 314894 314894 314894
       998 314895 314895 314895 314895
       999 314910 314910 314910 314910
       1000 314913 314913 314913 314913
       1001 314917 314917 314917 314917
       1002 314934 314934 314934 314934
       1003 314935 314935 314935 314935
       1004 314950 314950 314950 314950
       1005 314972 314972 314972 314972
       1006 314973 314973 314973 314973
       1007 314988 314988 314988 314988
       1008 314992 314992 314992 314992
       1009 315011 315011 315011 315011
       1010 315012 315012 315012 315012
       1011 315027 315027 315027 315027
       1012 315030 315030 315030 315030
       1013 315033 315033 315033 315033
       1014 315051 315051 315051 315051
       1015 315052 315052 315052 315052
       1016 315066 315066 315066 315066
       1017 315087 315087 315087 315087
       1018 315088 315088 315088 315088
       1019 315103 315103 315103 315103
       1020 315126 315126 315126 315126
       1021 315127 315127 315127 315127
       1022 315142 315142 315142 315142
       1023 315165 315165 315165 315165
       1024 315166 315166 315166 315166
       1025 315181 315181 315181 315181
       1026 315206 315206 315206 315206
       1027 315207 315207 315207 315207
       1028 315222 315222 315222 315222
       1029 315244 315244 315244 315244
       1030 315245 315245 315245 315245
       1031 315260 315260 315260 315260
       1032 315263 315263 315263 315263
       1033 315283 315283 315283 315283
       1034 315284 315284 315284 315284
       1035 315299 315299 315299 315299
       1036 315326 315326 315326 315326
       1037 315327 315327 315327 315327
       1038 315342 315342 315342 315342
       1039 315365 315365 315365 315365
       1040 315366 315366 315366 315366
       1041 315381 315381 315381 315381
       1042 315385 315385 315385 315385
       1043 315406 315406 315406 315406
       1044 315407 315407 315407 315407
       1045 315422 315422 315422 315422
       1046 315444 315444 315444 315444
       1047 315445 315445 315445 315445
       1048 315460 315460 315460 315460
       1049 315482 315482 315482 315482
       1050 315483 315483 315483 315483
       1051 315498 315498 315498 315498
       1052 315521 315521 315521 315521
       1053 315522 315522 315522 315522
       1054 315537 315537 315537 315537
       1055 315544 315544 315544 315544
       1056 315560 315560 315560 315560
       1057 315561 315561 315561 315561
       1058 315575 315575 315575 315575
       1059 315581 315581 315581 315581
       1060 315598 315598 315598 315598
       1061 315599 315599 315599 315599
       1062 315600 315600 315600 315600
       1063 315614 315614 315614 315614
       1064 315620 315620 315620 315620
       1065 315637 315637 315637 315637
       1066 315638 315638 315638 315638
       1067 315639 315639 315639 315639
       1068 315653 315653 315653 315653
       1069 315656 315656 315656 315656
       1070 315659 315659 315659 315659
       1071 315676 315676 315676 315676
       1072 315677 315677 315677 315677
       1073 315678 315678 315678 315678
       1074 315692 315692 315692 315692
       1075 315696 315696 315696 315696
       1076 315714 315714 315714 315714
       1077 315715 315715 315715 315715
       1078 315730 315730 315730 315730
       1079 315737 315737 315737 315737
       1080 315755 315755 315755 315755
       1081 315756 315756 315756 315756
       1082 315771 315771 315771 315771
       1083 315795 315795 315795 315795
       1084 315796 315796 315796 315796
       1085 315811 315811 315811 315811
       1086 315837 315837 315837 315837
       1087 315838 315838 315838 315838
       1088 315853 315853 315853 315853
       1089 315879 315879 315879 315879
       1090 315880 315880 315880 315880
       1091 315895 315895 315895 315895
       1092 315919 315919 315919 315919
       1093 315920 315920 315920 315920
       1094 315935 315935 315935 315935
       1095 315941 315941 315941 315941
       1096 315965 315965 315965 315965
       1097 315966 315966 315966 315966
       1098 315981 315981 315981 315981
       1099 316004 316004 316004 316004
       1100 316005 316005 316005 316005
       1101 316020 316020 316020 316020
       1102 316043 316043 316043 316043
       1103 316044 316044 316044 316044
       1104 316059 316059 316059 316059
       1105 316084 316084 316084 316084
       1106 316085 316085 316085 316085
       1107 316100 316100 316100 316100
       1108 316121 316121 316121 316121
       1109 316122 316122 316122 316122
       1110 316136 316136 316136 316136
       1111 316159 316159 316159 316159
       1112 316160 316160 316160 316160
       1113 316175 316175 316175 316175
       1114 316198 316198 316198 316198
       1115 316199 316199 316199 316199
       1116 316214 316214 316214 316214
       1117 316220 316220 316220 316220
       1118 316236 316236 316236 316236
       1119 316237 316237 316237 316237
       1120 316251 316251 316251 316251
       1121 316272 316272 316272 316272
       1122 316273 316273 316273 316273
       1123 316288 316288 316288 316288
       1124 316309 316309 316309 316309
       1125 316310 316310 316310 316310
       1126 316325 316325 316325 316325
       1127 316349 316349 316349 316349
       1128 316350 316350 316350 316350
       1129 316365 316365 316365 316365
       1130 316386 316386 316386 316386
       1131 316387 316387 316387 316387
       1132 316402 316402 316402 316402
       1133 316425 316425 316425 316425
       1134 316426 316426 316426 316426
       1135 316441 316441 316441 316441
       1136 316463 316463 316463 316463
       1137 316464 316464 316464 316464
       1138 316479 316479 316479 316479
       1139 316501 316501 316501 316501
       1140 316502 316502 316502 316502
       1141 316517 316517 316517 316517
       1142 316537 316537 316537 316537
       1143 316538 316538 316538 316538
       1144 316553 316553 316553 316553
       1145 316577 316577 316577 316577
       1146 316578 316578 316578 316578
       1147 316593 316593 316593 316593
       1148 316615 316615 316615 316615
       1149 316616 316616 316616 316616
       1150 316631 316631 316631 316631
       1151 316652 316652 316652 316652
       1152 316653 316653 316653 316653
       1153 316668 316668 316668 316668
       1154 316691 316691 316691 316691
       1155 316692 316692 316692 316692
       1156 316707 316707 316707 316707
       1157 316729 316729 316729 316729
       1158 316730 316730 316730 316730
       1159 316745 316745 316745 316745
       1160 316767 316767 316767 316767
       1161 316768 316768 316768 316768
       1162 316783 316783 316783 316783
       1163 316807 316807 316807 316807
       1164 316808 316808 316808 316808
       1165 316823 316823 316823 316823
       1166 316844 316844 316844 316844
       1167 316845 316845 316845 316845
       1168 316860 316860 316860 316860
       1169 316882 316882 316882 316882
       1170 316883 316883 316883 316883
       1171 316898 316898 316898 316898
       1172 316914 316914 316914 316914
       1173 316917 316917 316917 316917
       1174 316933 316933 316933 316933
       1175 316956 316956 316956 316956
       1176 316957 316957 316957 316957
       1177 316972 316972 316972 316972
       1178 316992 316992 316992 316992
       1179 316993 316993 316993 316993
       1180 317008 317008 317008 317008
       1181 317012 317012 317012 317012
       1182 317030 317030 317030 317030
       1183 317031 317031 317031 317031
       1184 317046 317046 317046 317046
       1185 317050 317050 317050 317050
       1186 317064 317064 317064 317064
       1187 317067 317067 317067 317067
       1188 317082 317082 317082 317082
       1189 317103 317103 317103 317103
       1190 317104 317104 317104 317104
       1191 317119 317119 317119 317119
       1192 317140 317140 317140 317140
       1193 317141 317141 317141 317141
       1194 317156 317156 317156 317156
       1195 317177 317177 317177 317177
       1196 317178 317178 317178 317178
       1197 317192 317192 317192 317192
       1198 317213 317213 317213 317213
       1199 317214 317214 317214 317214
       1200 317229 317229 317229 317229
       1201 317252 317252 317252 317252
       1202 317253 317253 317253 317253
       1203 317268 317268 317268 317268
       1204 317271 317271 317271 317271
       1205 317288 317288 317288 317288
       1206 317291 317291 317291 317291
       1207 317307 317307 317307 317307
       1208 317329 317329 317329 317329
       1209 317330 317330 317330 317330
       1210 317345 317345 317345 317345
       1211 317366 317366 317366 317366
       1212 317367 317367 317367 317367
       1213 317382 317382 317382 317382
       1214 317403 317403 317403 317403
       1215 317404 317404 317404 317404
       1216 317415 317415 317415 317415
       1217 317419 317419 317419 317419
       1218 317435 317435 317435 317435
       1219 317438 317438 317438 317438
       1220 317450 317450 317450 317450
       1221 317454 317454 317454 317454
       1222 317455 317455 317455 317455
       1223 317476 317476 317476 317476
       1224 317477 317477 317477 317477
       1225 317488 317488 317488 317488
       1226 317492 317492 317492 317492
       1227 317493 317493 317493 317493
       1228 317513 317513 317513 317513
       1229 317514 317514 317514 317514
       1230 317525 317525 317525 317525
       1231 317529 317529 317529 317529
       1232 317530 317530 317530 317530
       1233 317550 317550 317550 317550
       1234 317551 317551 317551 317551
       1235 317562 317562 317562 317562
       1236 317566 317566 317566 317566
       1237 317567 317567 317567 317567
       1238 317587 317587 317587 317587
       1239 317588 317588 317588 317588
       1240 317603 317603 317603 317603
       1241 317605 317605 317605 317605
       1242 317611 317611 317611 317611
       1243 317622 317622 317622 317622
       1244 317623 317623 317623 317623
       1245 317638 317638 317638 317638
       1246 317639 317639 317639 317639
       1247 317645 317645 317645 317645
       1248 317660 317660 317660 317660
       1249 317661 317661 317661 317661
       1250 317676 317676 317676 317676
       1251 317677 317677 317677 317677
       1252 317682 317682 317682 317682
       1253 317691 317691 317691 317691
       1254 317697 317697 317697 317697
       1255 317713 317713 317713 317713
       1256 317714 317714 317714 317714
       1257 317718 317718 317718 317718
       1258 317720 317720 317720 317720
       1259 317734 317734 317734 317734
       1260 317735 317735 317735 317735
       1261 317750 317750 317750 317750
       1262 317751 317751 317751 317751
       1263 317757 317757 317757 317757
       1264 317764 317764 317764 317764
       1265 317773 317773 317773 317773
       1266 317787 317787 317787 317787
       1267 317788 317788 317788 317788
       1268 317792 317792 317792 317792
       1269 317802 317802 317802 317802
       1270 317810 317810 317810 317810
       1271 317825 317825 317825 317825
       1272 317826 317826 317826 317826
       1273 317833 317833 317833 317833
       1274 317839 317839 317839 317839
       1275 317849 317849 317849 317849
       1276 317864 317864 317864 317864
       1277 317865 317865 317865 317865
       1278 317869 317869 317869 317869
       1279 317877 317877 317877 317877
       1280 317886 317886 317886 317886
       1281 317900 317900 317900 317900
       1282 317901 317901 317901 317901
       1283 317908 317908 317908 317908
       1284 317921 317921 317921 317921
       1285 317936 317936 317936 317936
       1286 317937 317937 317937 317937
       1287 317941 317941 317941 317941
       1288 317948 317948 317948 317948
       1289 317951 317951 317951 317951
       1290 317973 317973 317973 317973
       1291 317974 317974 317974 317974
       1292 317978 317978 317978 317978
       1293 317979 317979 317979 317979
       1294 317986 317986 317986 317986
       1295 317996 317996 317996 317996
       1296 318000 318000 318000 318000
       1297 318011 318011 318011 318011
       1298 318012 318012 318012 318012
       1299 318019 318019 318019 318019
       1300 318023 318023 318023 318023
       1301 318034 318034 318034 318034
       1302 318040 318040 318040 318040
       1303 318051 318051 318051 318051
       1304 318052 318052 318052 318052
       1305 318061 318061 318061 318061
       1306 318068 318068 318068 318068
       1307 318077 318077 318077 318077
       1308 318081 318081 318081 318081
       1309 318092 318092 318092 318092
       1310 318093 318093 318093 318093
       1311 318097 318097 318097 318097
       1312 318104 318104 318104 318104
       1313 318107 318107 318107 318107
       1314 318112 318112 318112 318112
       1315 318118 318118 318118 318118
       1316 318125 318125 318125 318125
       1317 318129 318129 318129 318129
       1318 318130 318130 318130 318130
       1319 318134 318134 318134 318134
       1320 318141 318141 318141 318141
       1321 318151 318151 318151 318151
       1322 318155 318155 318155 318155
       1323 318162 318162 318162 318162
       1324 318166 318166 318166 318166
       1325 318167 318167 318167 318167
       1326 318170 318170 318170 318170
       1327 318177 318177 318177 318177
       1328 318186 318186 318186 318186
       1329 318191 318191 318191 318191
       1330 318198 318198 318198 318198
       1331 318202 318202 318202 318202
       1332 318203 318203 318203 318203
       1333 318205 318205 318205 318205
       1334 318209 318209 318209 318209
       1335 318223 318223 318223 318223
       1336 318227 318227 318227 318227
       1337 318234 318234 318234 318234
       1338 318238 318238 318238 318238
       1339 318239 318239 318239 318239
       1340 318253 318253 318253 318253
       1341 318262 318262 318262 318262
       1342 318274 318274 318274 318274
       1343 318278 318278 318278 318278
       1344 318279 318279 318279 318279
       1345 318288 318288 318288 318288
       1346 318298 318298 318298 318298
       1347 318309 318309 318309 318309
       1348 318313 318313 318313 318313
       1349 318314 318314 318314 318314
       1350 318327 318327 318327 318327
       1351 318337 318337 318337 318337
       1352 318348 318348 318348 318348
       1353 318352 318352 318352 318352
       1354 318353 318353 318353 318353
       1355 318367 318367 318367 318367
       1356 318374 318374 318374 318374
       1357 318385 318385 318385 318385
       1358 318389 318389 318389 318389
       1359 318390 318390 318390 318390
       1360 318398 318398 318398 318398
       1361 318412 318412 318412 318412
       1362 318423 318423 318423 318423
       1363 318427 318427 318427 318427
       1364 318428 318428 318428 318428
       1365 318435 318435 318435 318435
       1366 318444 318444 318444 318444
       1367 318453 318453 318453 318453
       1368 318464 318464 318464 318464
       1369 318468 318468 318468 318468
       1370 318469 318469 318469 318469
       1371 318472 318472 318472 318472
       1372 318482 318482 318482 318482
       1373 318492 318492 318492 318492
       1374 318503 318503 318503 318503
       1375 318507 318507 318507 318507
       1376 318508 318508 318508 318508
       1377 318517 318517 318517 318517
       1378 318530 318530 318530 318530
       1379 318540 318540 318540 318540
       1380 318544 318544 318544 318544
       1381 318545 318545 318545 318545
       1382 318548 318548 318548 318548
       1383 318557 318557 318557 318557
       1384 318567 318567 318567 318567
       1385 318578 318578 318578 318578
       1386 318582 318582 318582 318582
       1387 318583 318583 318583 318583
       1388 318597 318597 318597 318597
       1389 318607 318607 318607 318607
       1390 318618 318618 318618 318618
       1391 318622 318622 318622 318622
       1392 318623 318623 318623 318623
       1393 318633 318633 318633 318633
       1394 318646 318646 318646 318646
       1395 318657 318657 318657 318657
       1396 318661 318661 318661 318661
       1397 318662 318662 318662 318662
       1398 318674 318674 318674 318674
       1399 318678 318678 318678 318678
       1400 318684 318684 318684 318684
       1401 318695 318695 318695 318695
       1402 318699 318699 318699 318699
       1403 318700 318700 318700 318700
       1404 318712 318712 318712 318712
       1405 318716 318716 318716 318716
       1406 318722 318722 318722 318722
       1407 318733 318733 318733 318733
       1408 318737 318737 318737 318737
       1409 318738 318738 318738 318738
       1410 318740 318740 318740 318740
       1411 318748 318748 318748 318748
       1412 318751 318751 318751 318751
       1413 318757 318757 318757 318757
       1414 318768 318768 318768 318768
       1415 318772 318772 318772 318772
       1416 318773 318773 318773 318773
       1417 318775 318775 318775 318775
       1418 318786 318786 318786 318786
       1419 318789 318789 318789 318789
       1420 318796 318796 318796 318796
       1421 318807 318807 318807 318807
       1422 318811 318811 318811 318811
       1423 318812 318812 318812 318812
       1424 318827 318827 318827 318827
       1425 318830 318830 318830 318830
       1426 318836 318836 318836 318836
       1427 318847 318847 318847 318847
       1428 318851 318851 318851 318851
       1429 318852 318852 318852 318852
       1430 318864 318864 318864 318864
       1431 318868 318868 318868 318868
       1432 318874 318874 318874 318874
       1433 318885 318885 318885 318885
       1434 318889 318889 318889 318889
       1435 318890 318890 318890 318890
       1436 318897 318897 318897 318897
       1437 318899 318899 318899 318899
       1438 318903 318903 318903 318903
       1439 318909 318909 318909 318909
       1440 318920 318920 318920 318920
       1441 318924 318924 318924 318924
       1442 318925 318925 318925 318925
       1443 318939 318939 318939 318939
       1444 318943 318943 318943 318943
       1445 318949 318949 318949 318949
       1446 318960 318960 318960 318960
       1447 318964 318964 318964 318964
       1448 318965 318965 318965 318965
       1449 318977 318977 318977 318977
       1450 318981 318981 318981 318981
       1451 318987 318987 318987 318987
       1452 318997 318997 318997 318997
       1453 319001 319001 319001 319001
       1454 319002 319002 319002 319002
       1455 319013 319013 319013 319013
       1456 319017 319017 319017 319017
       1457 319023 319023 319023 319023
       1458 319034 319034 319034 319034
       1459 319038 319038 319038 319038
       1460 319039 319039 319039 319039
       1461 319042 319042 319042 319042
       1462 319050 319050 319050 319050
       1463 319054 319054 319054 319054
       1464 319060 319060 319060 319060
       1465 319071 319071 319071 319071
       1466 319075 319075 319075 319075
       1467 319076 319076 319076 319076
       1468 319087 319087 319087 319087
       1469 319091 319091 319091 319091
       1470 319097 319097 319097 319097
       1471 319108 319108 319108 319108
       1472 319112 319112 319112 319112
       1473 319113 319113 319113 319113
       1474 319116 319116 319116 319116
       1475 319118 319118 319118 319118
       1476 319125 319125 319125 319125
       1477 319129 319129 319129 319129
       1478 319144 319144 319144 319144
       1479 319148 319148 319148 319148
       1480 319149 319149 319149 319149
       1481 319155 319155 319155 319155
       1482 319163 319163 319163 319163
       1483 319167 319167 319167 319167
       1484 319173 319173 319173 319173
       1485 319184 319184 319184 319184
       1486 319188 319188 319188 319188
       1487 319189 319189 319189 319189
       1488 319201 319201 319201 319201
       1489 319205 319205 319205 319205
       1490 319211 319211 319211 319211
       1491 319222 319222 319222 319222
       1492 319226 319226 319226 319226
       1493 319227 319227 319227 319227
       1494 319229 319229 319229 319229
       1495 319230 319230 319230 319230
       1496 319234 319234 319234 319234
       1497 319240 319240 319240 319240
       1498 319244 319244 319244 319244
       1499 319250 319250 319250 319250
       1500 319260 319260 319260 319260
       1501 319264 319264 319264 319264
       1502 319265 319265 319265 319265
       1503 319268 319268 319268 319268
       1504 319277 319277 319277 319277
       1505 319281 319281 319281 319281
       1506 319286 319286 319286 319286
       1507 319297 319297 319297 319297
       1508 319301 319301 319301 319301
       1509 319302 319302 319302 319302
       1510 319310 319310 319310 319310
       1511 319317 319317 319317 319317
       1512 319320 319320 319320 319320
       1513 319326 319326 319326 319326
       1514 319337 319337 319337 319337
       1515 319341 319341 319341 319341
       1516 319342 319342 319342 319342
       1517 319349 319349 319349 319349
       1518 319356 319356 319356 319356
       1519 319360 319360 319360 319360
       1520 319366 319366 319366 319366
       1521 319377 319377 319377 319377
       1522 319381 319381 319381 319381
       1523 319382 319382 319382 319382
       1524 319389 319389 319389 319389
       1525 319396 319396 319396 319396
       1526 319400 319400 319400 319400
       1527 319406 319406 319406 319406
       1528 319417 319417 319417 319417
       1529 319422 319422 319422 319422
       1530 319429 319429 319429 319429
       1531 319436 319436 319436 319436
       1532 319440 319440 319440 319440
       1533 319446 319446 319446 319446
       1534 319457 319457 319457 319457
       1535 319461 319461 319461 319461
       1536 319462 319462 319462 319462
       1537 319464 319464 319464 319464
       1538 319470 319470 319470 319470
       1539 319477 319477 319477 319477
       1540 319481 319481 319481 319481
       1541 319487 319487 319487 319487
       1542 319498 319498 319498 319498
       1543 319502 319502 319502 319502
       1544 319503 319503 319503 319503
       1545 319518 319518 319518 319518
       1546 319522 319522 319522 319522
       1547 319528 319528 319528 319528
       1548 319539 319539 319539 319539
       1549 319543 319543 319543 319543
       1550 319544 319544 319544 319544
       1551 319554 319554 319554 319554
       1552 319558 319558 319558 319558
       1553 319564 319564 319564 319564
       1554 319575 319575 319575 319575
       1555 319580 319580 319580 319580
       1556 319593 319593 319593 319593
       1557 319597 319597 319597 319597
       1558 319603 319603 319603 319603
       1559 319614 319614 319614 319614
       1560 319619 319619 319619 319619
       1561 319631 319631 319631 319631
       1562 319635 319635 319635 319635
       1563 319641 319641 319641 319641
       1564 319652 319652 319652 319652
       1565 319657 319657 319657 319657
       1566 319659 319659 319659 319659
       1567 319666 319666 319666 319666
       1568 319669 319669 319669 319669
       1569 319675 319675 319675 319675
       1570 319686 319686 319686 319686
       1571 319691 319691 319691 319691
       1572 319694 319694 319694 319694
       1573 319695 319695 319695 319695
       1574 319704 319704 319704 319704
       1575 319708 319708 319708 319708
       1576 319714 319714 319714 319714
       1577 319718 319718 319718 319718
       1578 319725 319725 319725 319725
       1579 319730 319730 319730 319730
       1580 319732 319732 319732 319732
       1581 319741 319741 319741 319741
       1582 319745 319745 319745 319745
       1583 319751 319751 319751 319751
       1584 319755 319755 319755 319755
       1585 319762 319762 319762 319762
       1586 319767 319767 319767 319767
       1587 319779 319779 319779 319779
       1588 319783 319783 319783 319783
       1589 319788 319788 319788 319788
       1590 319792 319792 319792 319792
       1591 319799 319799 319799 319799
       1592 319804 319804 319804 319804
       1593 319816 319816 319816 319816
       1594 319820 319820 319820 319820
       1595 319826 319826 319826 319826
       1596 319830 319830 319830 319830
       1597 319837 319837 319837 319837
       1598 319842 319842 319842 319842
       1599 319847 319847 319847 319847
       1600 319858 319858 319858 319858
       1601 319862 319862 319862 319862
       1602 319868 319868 319868 319868
       1603 319872 319872 319872 319872
       1604 319879 319879 319879 319879
       1605 319884 319884 319884 319884
       1606 319886 319886 319886 319886
       1607 319887 319887 319887 319887
       1608 319888 319888 319888 319888
       1609 319898 319898 319898 319898
       1610 319902 319902 319902 319902
       1611 319908 319908 319908 319908
       1612 319912 319912 319912 319912
       1613 319919 319919 319919 319919
       1614 319924 319924 319924 319924
       1615 319931 319931 319931 319931
       1616 319940 319940 319940 319940
       1617 319944 319944 319944 319944
       1618 319950 319950 319950 319950
       1619 319954 319954 319954 319954
       1620 319961 319961 319961 319961
       1621 319966 319966 319966 319966
       1622 319980 319980 319980 319980
       1623 319984 319984 319984 319984
       1624 319990 319990 319990 319990
       1625 319994 319994 319994 319994
       1626 320001 320001 320001 320001
       1627 320006 320006 320006 320006
       1628 320009 320009 320009 320009
       1629 320013 320013 320013 320013
       1630 320014 320014 320014 320014
       1631 320021 320021 320021 320021
       1632 320025 320025 320025 320025
       1633 320034 320034 320034 320034
       1634 320041 320041 320041 320041
       1635 320046 320046 320046 320046
       1636 320061 320061 320061 320061
       1637 320064 320064 320064 320064
       1638 320070 320070 320070 320070
       1639 320074 320074 320074 320074
       1640 320081 320081 320081 320081
       1641 320086 320086 320086 320086
       1642 320099 320099 320099 320099
       1643 320103 320103 320103 320103
       1644 320108 320108 320108 320108
       1645 320113 320113 320113 320113
       1646 320120 320120 320120 320120
       1647 320125 320125 320125 320125
       1648 320129 320129 320129 320129
       1649 320134 320134 320134 320134
       1650 320138 320138 320138 320138
       1651 320144 320144 320144 320144
       1652 320148 320148 320148 320148
       1653 320155 320155 320155 320155
       1654 320160 320160 320160 320160
[...]
     number of failed beam   elements = 0
     number of failed shell  elements = 0
     number of failed tshell elements = 0

 S u m m a r y   F r o m   A l l  P r o c e s s o r s
 f a i l e d   e l e m e n t   r e p o r t  time= 4.27462E-05

 CPU     0 CPU     1 CPU     2 CPU     3                                        
 --------- --------- --------- ---------                                        
      1990        95         0         0  
         0         0         0         0  
         0         0         0         0  
         0         0         0         0  

      total number of failed solid  elements =    2085
      total number of failed beam   elements =       0
      total number of failed shell  elements =       0
      total number of failed tshell elements =       0
 f a i l e d   e l e m e n t   r e p o r t  time=  4.4372E-05
     number of failed solid  elements = 1990
     number of failed beam   elements = 0
     number of failed shell  elements = 0
     number of failed tshell elements = 0

 S u m m a r y   F r o m   A l l  P r o c e s s o r s
 f a i l e d   e l e m e n t   r e p o r t  time= 4.43723E-05

 CPU     0 CPU     1 CPU     2 CPU     3                                        
 --------- --------- --------- ---------                                        
      1990        96         0         0  
         0         0         0         0  
         0         0         0         0  
         0         0         0         0  

      total number of failed solid  elements =    2086
      total number of failed beam   elements =       0
      total number of failed shell  elements =       0
      total number of failed tshell elements =       0
   42846 t 4.4439E-05 dt 1.22E-09 write d3plot file            04/08/22 12:53:09
   44501 t 4.6460E-05 dt 1.22E-09 write d3plot file            04/08/22 12:53:20
   45000 t 4.7069E-05 dt 1.22E-09 flush i/o buffers            04/08/22 12:53:23
 Element deleted due to damage
     solid element 36649  failed at time  4.8355E-05
 f a i l e d   e l e m e n t   r e p o r t  time=  4.8355E-05
     number of failed solid  elements = 1991
     number of failed beam   elements = 0
     number of failed shell  elements = 0
     number of failed tshell elements = 0

 S u m m a r y   F r o m   A l l  P r o c e s s o r s
 f a i l e d   e l e m e n t   r e p o r t  time= 4.83546E-05

 CPU     0 CPU     1 CPU     2 CPU     3                                        
 --------- --------- --------- ---------                                        
      1991        96         0         0  
         0         0         0         0  
         0         0         0         0  
         0         0         0         0  

      total number of failed solid  elements =    2087
      total number of failed beam   elements =       0
      total number of failed shell  elements =       0
      total number of failed tshell elements =       0
 f a i l e d   e l e m e n t   r e p o r t  time=  4.8458E-05
     number of failed solid  elements = 1991
     number of failed beam   elements = 0
     number of failed shell  elements = 0
     number of failed tshell elements = 0

 S u m m a r y   F r o m   A l l  P r o c e s s o r s
 f a i l e d   e l e m e n t   r e p o r t  time= 4.84583E-05

 CPU     0 CPU     1 CPU     2 CPU     3                                        
 --------- --------- --------- ---------                                        
      1991        97         0         0  
         0         0         0         0  
         0         0         0         0  
         0         0         0         0  

      total number of failed solid  elements =    2088
      total number of failed beam   elements =       0
      total number of failed shell  elements =       0
      total number of failed tshell elements =       0
   46155 t 4.8479E-05 dt 1.22E-09 write d3plot file            04/08/22 12:53:30
 Element deleted due to damage
     solid element 33750  failed at time  4.8585E-05
 f a i l e d   e l e m e n t   r e p o r t  time=  4.8585E-05
     number of failed solid  elements = 1992
     number of failed beam   elements = 0
     number of failed shell  elements = 0
     number of failed tshell elements = 0

 S u m m a r y   F r o m   A l l  P r o c e s s o r s
 f a i l e d   e l e m e n t   r e p o r t  time= 4.85853E-05

 CPU     0 CPU     1 CPU     2 CPU     3                                        
 --------- --------- --------- ---------                                        
      1992        97         0         0  
         0         0         0         0  
         0         0         0         0  
         0         0         0         0  

      total number of failed solid  elements =    2089
      total number of failed beam   elements =       0
      total number of failed shell  elements =       0
      total number of failed tshell elements =       0
 f a i l e d   e l e m e n t   r e p o r t  time=  4.9686E-05
     number of failed solid  elements = 1992
     number of failed beam   elements = 0
     number of failed shell  elements = 0
     number of failed tshell elements = 0

 S u m m a r y   F r o m   A l l  P r o c e s s o r s
 f a i l e d   e l e m e n t   r e p o r t  time= 4.96864E-05

 CPU     0 CPU     1 CPU     2 CPU     3                                        
 --------- --------- --------- ---------                                        
      1992        98         0         0  
         0         0         0         0  
         0         0         0         0  
         0         0         0         0  

      total number of failed solid  elements =    2090
      total number of failed beam   elements =       0
      total number of failed shell  elements =       0
      total number of failed tshell elements =       0
   47810 t 5.0500E-05 dt 1.22E-09 write d3plot file            04/08/22 12:53:41
 f a i l e d   e l e m e n t   r e p o r t  time=  5.0847E-05
     number of failed solid  elements = 1992
     number of failed beam   elements = 0
     number of failed shell  elements = 0
     number of failed tshell elements = 0

 S u m m a r y   F r o m   A l l  P r o c e s s o r s
 f a i l e d   e l e m e n t   r e p o r t  time= 5.08474E-05

 CPU     0 CPU     1 CPU     2 CPU     3                                        
 --------- --------- --------- ---------                                        
      1992        99         0         0  
         0         0         0         0  
         0         0         0         0  
         0         0         0         0  

      total number of failed solid  elements =    2091
      total number of failed beam   elements =       0
      total number of failed shell  elements =       0
      total number of failed tshell elements =       0
   49465 t 5.2520E-05 dt 1.22E-09 write d3plot file            04/08/22 12:53:51
   50000 t 5.3173E-05 dt 1.22E-09 flush i/o buffers            04/08/22 12:53:55
 f a i l e d   e l e m e n t   r e p o r t  time=  5.3193E-05
     number of failed solid  elements = 1992
     number of failed beam   elements = 0
     number of failed shell  elements = 0
     number of failed tshell elements = 0

 S u m m a r y   F r o m   A l l  P r o c e s s o r s
 f a i l e d   e l e m e n t   r e p o r t  time= 5.31926E-05

 CPU     0 CPU     1 CPU     2 CPU     3                                        
 --------- --------- --------- ---------                                        
      1992        99         1         0  
         0         0         0         0  
         0         0         0         0  
         0         0         0         0  

      total number of failed solid  elements =    2092
      total number of failed beam   elements =       0
      total number of failed shell  elements =       0
      total number of failed tshell elements =       0
 f a i l e d   e l e m e n t   r e p o r t  time=  5.3553E-05
     number of failed solid  elements = 1992
     number of failed beam   elements = 0
     number of failed shell  elements = 0
     number of failed tshell elements = 0

 S u m m a r y   F r o m   A l l  P r o c e s s o r s
 f a i l e d   e l e m e n t   r e p o r t  time= 5.35527E-05

 CPU     0 CPU     1 CPU     2 CPU     3                                        
 --------- --------- --------- ---------                                        
      1992       100         1         0  
         0         0         0         0  
         0         0         0         0  
         0         0         0         0  

      total number of failed solid  elements =    2093
      total number of failed beam   elements =       0
      total number of failed shell  elements =       0
      total number of failed tshell elements =       0
 f a i l e d   e l e m e n t   r e p o r t  time=  5.3681E-05
     number of failed solid  elements = 1992
     number of failed beam   elements = 0
     number of failed shell  elements = 0
     number of failed tshell elements = 0

 S u m m a r y   F r o m   A l l  P r o c e s s o r s
 f a i l e d   e l e m e n t   r e p o r t  time= 5.36809E-05

 CPU     0 CPU     1 CPU     2 CPU     3                                        
 --------- --------- --------- ---------                                        
      1992       100         2         0  
         0         0         0         0  
         0         0         0         0  
         0         0         0         0  

      total number of failed solid  elements =    2094
      total number of failed beam   elements =       0
      total number of failed shell  elements =       0
      total number of failed tshell elements =       0
 f a i l e d   e l e m e n t   r e p o r t  time=  5.4374E-05
     number of failed solid  elements = 1992
     number of failed beam   elements = 0
     number of failed shell  elements = 0
     number of failed tshell elements = 0

 S u m m a r y   F r o m   A l l  P r o c e s s o r s
 f a i l e d   e l e m e n t   r e p o r t  time= 5.43743E-05

 CPU     0 CPU     1 CPU     2 CPU     3                                        
 --------- --------- --------- ---------                                        
      1992       100         3         0  
         0         0         0         0  
         0         0         0         0  
         0         0         0         0  

      total number of failed solid  elements =    2095
      total number of failed beam   elements =       0
      total number of failed shell  elements =       0
      total number of failed tshell elements =       0
   51119 t 5.4539E-05 dt 1.22E-09 write d3plot file            04/08/22 12:54:02
 f a i l e d   e l e m e n t   r e p o r t  time=  5.5685E-05
     number of failed solid  elements = 1992
     number of failed beam   elements = 0
     number of failed shell  elements = 0
     number of failed tshell elements = 0

 S u m m a r y   F r o m   A l l  P r o c e s s o r s
 f a i l e d   e l e m e n t   r e p o r t  time= 5.56855E-05

 CPU     0 CPU     1 CPU     2 CPU     3                                        
 --------- --------- --------- ---------                                        
      1992       100         4         0  
         0         0         0         0  
         0         0         0         0  
         0         0         0         0  

      total number of failed solid  elements =    2096
      total number of failed beam   elements =       0
      total number of failed shell  elements =       0
      total number of failed tshell elements =       0
   52774 t 5.6560E-05 dt 1.22E-09 write d3plot file            04/08/22 12:54:13
 f a i l e d   e l e m e n t   r e p o r t  time=  5.8430E-05
     number of failed solid  elements = 1992
     number of failed beam   elements = 0
     number of failed shell  elements = 0
     number of failed tshell elements = 0

 S u m m a r y   F r o m   A l l  P r o c e s s o r s
 f a i l e d   e l e m e n t   r e p o r t  time= 5.84298E-05

 CPU     0 CPU     1 CPU     2 CPU     3                                        
 --------- --------- --------- ---------                                        
      1992       101         4         0  
         0         0         0         0  
         0         0         0         0  
         0         0         0         0  

      total number of failed solid  elements =    2097
      total number of failed beam   elements =       0
      total number of failed shell  elements =       0
      total number of failed tshell elements =       0
   54429 t 5.8580E-05 dt 1.22E-09 write d3plot file            04/08/22 12:54:24
   55000 t 5.9277E-05 dt 1.22E-09 flush i/o buffers            04/08/22 12:54:27
 
 *** termination time reached ***
   55592 t 6.0001E-05 dt 1.22E-09 write d3plot file            04/08/22 12:54:31

 N o r m a l    t e r m i n a t i o n                          04/08/22 12:54:31

 S t o r a g e   a l l o c a t i o n   

 Memory required to complete solution   :     274K
 Additional dynamically allocated memory:      33M
                                   Total:      33M


 P r o c e s s o r   #         0

 T i m i n g   i n f o r m a t i o n
                        CPU(seconds)   %CPU  Clock(seconds) %Clock
  ----------------------------------------------------------------
  Keyword Processing ... 2.1552E-01    0.07     3.0746E-01    0.10
    KW Reading ......... 7.8885E-02    0.03     8.0173E-02    0.03
    KW Writing ......... 4.5726E-02    0.02     7.7619E-02    0.03
  MPP Decomposition .... 4.3535E-01    0.15     7.0174E-01    0.23
    Init Proc .......... 3.1382E-01    0.11     4.8252E-01    0.16
    Decomposition ...... 1.9574E-02    0.01     6.4377E-02    0.02
    Translation ........ 1.0185E-01    0.03     1.5473E-01    0.05
  Initialization ....... 1.3408E-01    0.05     1.6588E-01    0.06
    Init Proc Phase 1 .. 1.0550E-01    0.04     1.1195E-01    0.04
    Init Proc Phase 2 .. 1.2424E-02    0.00     1.5021E-02    0.00
  Element processing ... 1.1339E+02   38.69     1.1409E+02   37.94
    Solids ............. 1.0912E+02   37.23     1.0977E+02   36.50
    E Other ............ 1.9567E-01    0.07     1.9921E-01    0.07
  Binary databases ..... 4.7655E-01    0.16     4.9261E-01    0.16
  ASCII database ....... 3.1021E+00    1.06     8.6737E+00    2.88
  Contact algorithm .... 6.7457E+01   23.02     6.7801E+01   22.55
    Interf. ID         3 1.8075E+01    6.17     1.8160E+01    6.04
    Interf. ID         2 4.2490E+01   14.50     4.2708E+01   14.20
  Rigid Bodies ......... 1.7450E-01    0.06     1.7493E-01    0.06
  DEM .................. 1.0601E+01    3.62     1.0647E+01    3.54
    DEM self contact ... 9.9949E+00    3.41     1.0040E+01    3.34
  Time step size ....... 6.6191E+01   22.59     6.6472E+01   22.11
  Group force file ..... 4.8567E-02    0.02     5.7157E-02    0.02
  Others ............... 2.3068E+00    0.79     2.3821E+00    0.79
    Force Sharing ...... 1.9246E+00    0.66     1.9301E+00    0.64
  Misc. 1 .............. 2.0737E+01    7.08     2.0875E+01    6.94
    Scale Masses ....... 1.8890E-02    0.01     1.8768E-02    0.01
    Force Constraints .. 2.8715E-02    0.01     2.9161E-02    0.01
    Force to Accel ..... 2.1418E+00    0.73     2.1487E+00    0.71
    Constraint Sharing . 3.8243E-02    0.01     3.8586E-02    0.01
    Update RB nodes .... 4.0671E-02    0.01     4.1715E-02    0.01
  Misc. 2 .............. 5.0899E+00    1.74     5.1086E+00    1.70
  Misc. 3 .............. 1.3553E+00    0.46     1.4006E+00    0.47
  Misc. 4 .............. 1.3540E+00    0.46     1.3621E+00    0.45
    Timestep Init ...... 1.0467E+00    0.36     1.0477E+00    0.35
    Apply Loads ........ 2.4146E-01    0.08     2.4657E-01    0.08
  ----------------------------------------------------------------
  T o t a l s            2.9307E+02  100.00     3.0071E+02  100.00


 A v e r a g e s

 T i m i n g   i n f o r m a t i o n
                        CPU(seconds)   %CPU  Clock(seconds) %Clock
  ----------------------------------------------------------------
  Keyword Processing ... 2.8479E-01    0.10     3.0870E-01    0.10
    KW Reading ......... 1.9721E-02    0.01     2.0043E-02    0.01
    KW Writing ......... 1.1432E-02    0.00     1.9405E-02    0.01
  MPP Decomposition .... 5.9333E-01    0.20     7.0052E-01    0.23
    Init Proc .......... 4.3903E-01    0.15     4.8255E-01    0.16
    Decomposition ...... 5.2936E-02    0.02     6.4324E-02    0.02
    Translation ........ 1.0128E-01    0.03     1.5355E-01    0.05
  Initialization ....... 1.5139E-01    0.05     1.6646E-01    0.06
    Init Proc Phase 1 .. 1.0687E-01    0.04     1.1183E-01    0.04
    Init Proc Phase 2 .. 1.3947E-02    0.00     1.5019E-02    0.00
  Element processing ... 1.3316E+02   44.75     1.3388E+02   44.52
    Solids ............. 1.2782E+02   42.96     1.2850E+02   42.73
    E Other ............ 1.3692E-01    0.05     1.3893E-01    0.05
  Binary databases ..... 4.9681E-01    0.17     5.0379E-01    0.17
  ASCII database ....... 2.3227E+00    0.78     3.7271E+00    1.24
  Contact algorithm .... 6.5189E+01   21.91     6.5519E+01   21.79
    Interf. ID         3 1.6393E+01    5.51     1.6472E+01    5.48
    Interf. ID         2 4.1712E+01   14.02     4.1927E+01   13.94
  Rigid Bodies ......... 2.4383E-01    0.08     2.4427E-01    0.08
  DEM .................. 1.0697E+01    3.60     1.0746E+01    3.57
    DEM self contact ... 1.0037E+01    3.37     1.0086E+01    3.35
  Time step size ....... 4.6486E+01   15.62     4.6684E+01   15.52
  Group force file ..... 5.6227E-02    0.02     6.6425E-02    0.02
  Others ............... 2.9405E+00    0.99     3.0199E+00    1.00
    Force Sharing ...... 2.4897E+00    0.84     2.4972E+00    0.83
  Misc. 1 .............. 2.2101E+01    7.43     2.2225E+01    7.39
    Scale Masses ....... 2.1911E-02    0.01     2.1731E-02    0.01
    Force Constraints .. 3.6577E-02    0.01     3.7244E-02    0.01
    Force to Accel ..... 2.2080E+00    0.74     2.2129E+00    0.74
    Constraint Sharing . 3.9183E-02    0.01     3.9466E-02    0.01
    Update RB nodes .... 4.8398E-02    0.02     4.9943E-02    0.02
  Misc. 2 .............. 5.3143E+00    1.79     5.3320E+00    1.77
  Misc. 3 .............. 6.1026E+00    2.05     6.1662E+00    2.05
  Misc. 4 .............. 1.4151E+00    0.48     1.4228E+00    0.47
    Timestep Init ...... 1.0894E+00    0.37     1.0884E+00    0.36
    Apply Loads ........ 2.5924E-01    0.09     2.6654E-01    0.09
  ----------------------------------------------------------------
  T o t a l s            2.9756E+02  100.00     3.0071E+02  100.00

 Problem time       =    6.0001E-05
 Problem cycle      =     55592
 Total CPU time     =       298 seconds (   0 hours  4 minutes 58 seconds)
 CPU time per zone cycle  =        461.325 nanoseconds
 Clock time per zone cycle=        465.618 nanoseconds

 Parallel execution with      4 MPP proc
 NLQ used/max                64/    64

  C P U   T i m i n g   i n f o r m a t i o n

  Processor   Hostname                              CPU/Avg_CPU  CPU(seconds)
  ---------------------------------------------------------------------------
  #       0   compute-0-0                               0.98487   2.9311E+02
  #       1   compute-0-0                               1.00473   2.9902E+02
  #       2   compute-0-0                               1.00510   2.9913E+02
  #       3   compute-0-0                               1.00530   2.9919E+02
  ---------------------------------------------------------------------------
  T o t a l s                                                     1.1905E+03


 Start time   04/08/2022 12:49:31  
 End time     04/08/2022 12:54:31  
 Elapsed time     300 seconds for   55592 cycles using     4 MPP procs
             (      0 hour   5 minutes  0 second )

 N o r m a l    t e r m i n a t i o n                          04/08/22 12:54:31
   55592 t 6.0001E-05 dt 1.22E-09 flush i/o buffers            04/08/22 12:54:31
