      Date: 04/08/2022      Time: 12:49:31  

     ___________________________________________________
     |                                                 |
     |  Livermore Software Technology, LLC             |
     |                                                 |
     |  7374 Las Positas Road                          |
     |  Livermore, CA 94551                            |
     |  Tel: (925) 449-2500  Fax: (925) 449-2507       |
     |  www.lstc.com                                   |
     |_________________________________________________|
     |                                                 |
     |  LS-DYNA, A Program for Nonlinear Dynamic       |
     |  Analysis of Structures in Three Dimensions     |
     |  Version : mpp d R12.0.0   Date: 06/19/2020     |
     |  Revision: 148931          Time: 17:26:40       |
     |                                                 |
     |  Features enabled in this version:              |
     |    Distributed Memory Parallel                  |
     |    CESE CHEMISTRY EM ICFD STOCHASTIC_PARTICLES  |
     |    FFTW (multi-dimensional FFTW Library)        |
     |    ANSYS License (ANSYS202)                     |
     |    BigID  option                                |
     |                                                 |
     |  Licensed to:                                   |
     |  Issued by  : Pascale.SaneGuttin_02092022       |
     |                                                 |
     |  Platform   : Intel-MPI 2018 Xeon64             |
     |  OS Level   : Linux CentOS 6.5 uom              |
     |  Compiler   : Intel Fortran Compiler 16.0 AVX-2 |
     |  Hostname   : compute-0-0                       |
     |  Precision  : Double precision (I8R8)           |
     |  SVN Version: 148978                            |
     |                                                 |
     |  Unauthorized use infringes LST copyrights      |
     |_________________________________________________|


 Input file: DynaOpt.key                                                                     

 The native file format       : 64-bit small endian

 LS-DYNA will perform a structural only analysis 

 allocating  memory to   100000000 d     1985258 hex ownership chunk
 contracting memory to           7 d     1991052 material sort chunk
 expanding   memory to          12 d     2059781 nodal force sharing lists 1
 expanding   memory to          18 d     2042333 mat scratch
 expanding   memory to          19 d     3116937 tied nodes scratch
 expanding   memory to          22 d     3116937 tied node scratch
 contracting memory to          18 d     3116937 nodal rigid body scratch
 expanding   memory to        1298 d     3116937 DES sld2des scratch
 expanding   memory to       19450 d     3116937 DES sld2des scratch
 contracting memory to        2450 d     3116937 DES sld2des scratch
 contracting memory to          18 d     3116937 spring/damper scratch
 contracting memory to           1 d     2107104 Performing Decomposition -- Phase 3
 LS-DYNA keyword deck by LS-PrePost                                      
                         ls-dyna mpp.148931 d           date 06/19/2020
 expanding   memory to        4305 d     2107104 material, node and element data
 expanding   memory to        4399 d     2107123 mat add general damage 0
 expanding   memory to        4459 d     2107123 material added airbag porosity leakage 
 expanding   memory to        4477 d     2107123 material properties
 expanding   memory to        4495 d     2147527 element data for composite material
 expanding   memory to        4510 d     2501358 gradient of damage data
 expanding   memory to       18550 d     2544822 user control for contact interfaces
 contracting memory to       18536 d     2544822 thermal expansion 0
 expanding   memory to       18542 d     2544822 state of charge expansion 0
 expanding   memory to       18544 d     2544822 cross-sectional force definitions 0
 expanding   memory to       28931 d     2544858 temp index array for node sorting
 contracting memory to       18544 d     2544858 just because?
 expanding   memory to       21441 d     2565650 arbitrary element numbering input
 contracting memory to       18564 d    27217661 spc cards
 contracting memory to       18551 d    27217661 d3thdt storage
 expanding   memory to       18552 d    27306988 process element material data
 expanding   memory to       20553 d    27306982 load curve data
 contracting memory to       18559 d    27306982 user_define_loading_set
 expanding   memory to       18759 d    27306982 regularize time history data
 contracting memory to       18563 d    27306982 *DEFINE_ELEMENT_DEATH
 expanding   memory to       18818 d    27286350 contact interfaces
 expanding   memory to       40592 d    27286350 implicit contact 1
 expanding   memory to       63750 d    27286350 implicit contact 2
 contracting memory to       19818 d    27557671 contact segment data 1
 expanding   memory to       74155 d    27820756 contact segment data 3
 expanding   memory to      166731 d    27693729 read contacts, eroding check
 expanding   memory to      256673 d    27693729 eroding neighbors 2
 expanding   memory to      276953 d    27693729 eroding neighbors
 contracting memory to      114715 d    28161136 contact definition
 expanding   memory to      114721 d    28317001 contact history
 expanding   memory to      114775 d    28401785 rigid body
 expanding   memory to      114793 d    28402399 rbe2 scratch
 contracting memory to      114779 d    28465181 contact friction
 expanding   memory to      114869 d    28465187 joints
 expanding   memory to      116929 d    28465187 de sld2des
 expanding   memory to      116969 d    28473878 discrete elements regions
 expanding   memory to      117069 d    28689002 rigid bodies for disp. termination
 
 *** Warning 40859 (SOL+859)
     Cannot find elements of slave segment of interface 2
 deleted segment ID          n1          n2          n3          n4
       1 310644 310644 310644 310644
       2 310646 310646 310646 310646
       3 310648 310648 310648 310648
       4 310656 310656 310656 310656
       5 310657 310657 310657 310657
       6 310660 310660 310660 310660
       7 310664 310664 310664 310664
       8 310665 310665 310665 310665
       9 310667 310667 310667 310667
       10 310671 310671 310671 310671
       11 310672 310672 310672 310672
       12 310673 310673 310673 310673
       13 310674 310674 310674 310674
       14 310675 310675 310675 310675
       15 310678 310678 310678 310678
       16 310681 310681 310681 310681
       17 310683 310683 310683 310683
       18 310685 310685 310685 310685
       19 310693 310693 310693 310693
       20 310694 310694 310694 310694
       21 310697 310697 310697 310697
       22 310701 310701 310701 310701
       23 310703 310703 310703 310703
       24 310707 310707 310707 310707
       25 310708 310708 310708 310708
       26 310709 310709 310709 310709
       27 310710 310710 310710 310710
       28 310711 310711 310711 310711
       29 310714 310714 310714 310714
       30 310715 310715 310715 310715
       31 310718 310718 310718 310718
       32 310721 310721 310721 310721
       33 310723 310723 310723 310723
       34 310730 310730 310730 310730
       35 310731 310731 310731 310731
       36 310734 310734 310734 310734
       37 310739 310739 310739 310739
       38 310741 310741 310741 310741
       39 310745 310745 310745 310745
       40 310746 310746 310746 310746
       41 310747 310747 310747 310747
       42 310748 310748 310748 310748
       43 310749 310749 310749 310749
       44 310757 310757 310757 310757
       45 310759 310759 310759 310759
       46 310761 310761 310761 310761
       47 310769 310769 310769 310769
       48 310770 310770 310770 310770
       49 310777 310777 310777 310777
       50 310779 310779 310779 310779
       51 310783 310783 310783 310783
       52 310784 310784 310784 310784
       53 310785 310785 310785 310785
       54 310786 310786 310786 310786
       55 310787 310787 310787 310787
       56 310794 310794 310794 310794
       57 310796 310796 310796 310796
       58 310798 310798 310798 310798
       59 310806 310806 310806 310806
       60 310807 310807 310807 310807
       61 310814 310814 310814 310814
       62 310816 310816 310816 310816
       63 310820 310820 310820 310820
       64 310821 310821 310821 310821
       65 310822 310822 310822 310822
       66 310823 310823 310823 310823
       67 310824 310824 310824 310824
       68 310833 310833 310833 310833
       69 310835 310835 310835 310835
       70 310843 310843 310843 310843
       71 310844 310844 310844 310844
       72 310852 310852 310852 310852
       73 310854 310854 310854 310854
       74 310858 310858 310858 310858
       75 310859 310859 310859 310859
       76 310860 310860 310860 310860
       77 310861 310861 310861 310861
       78 310862 310862 310862 310862
       79 310868 310868 310868 310868
       80 310871 310871 310871 310871
       81 310873 310873 310873 310873
       82 310881 310881 310881 310881
       83 310882 310882 310882 310882
       84 310885 310885 310885 310885
       85 310890 310890 310890 310890
       86 310892 310892 310892 310892
       87 310896 310896 310896 310896
       88 310897 310897 310897 310897
       89 310898 310898 310898 310898
       90 310899 310899 310899 310899
       91 310900 310900 310900 310900
       92 310909 310909 310909 310909
       93 310911 310911 310911 310911
       94 310912 310912 310912 310912
       95 310921 310921 310921 310921
       96 310922 310922 310922 310922
       97 310925 310925 310925 310925
       98 310930 310930 310930 310930
       99 310932 310932 310932 310932
       100 310936 310936 310936 310936
       101 310937 310937 310937 310937
       102 310938 310938 310938 310938
       103 310940 310940 310940 310940
       104 310945 310945 310945 310945
       105 310946 310946 310946 310946
       106 310950 310950 310950 310950
       107 310952 310952 310952 310952
       108 310960 310960 310960 310960
       109 310961 310961 310961 310961
       110 310964 310964 310964 310964
       111 310969 310969 310969 310969
       112 310971 310971 310971 310971
       113 310975 310975 310975 310975
       114 310976 310976 310976 310976
       115 310977 310977 310977 310977
       116 310979 310979 310979 310979
       117 310985 310985 310985 310985
       118 310986 310986 310986 310986
       119 310988 310988 310988 310988
       120 310995 310995 310995 310995
       121 310996 310996 310996 310996
       122 310999 310999 310999 310999
       123 311004 311004 311004 311004
       124 311006 311006 311006 311006
       125 311010 311010 311010 311010
       126 311011 311011 311011 311011
       127 311013 311013 311013 311013
       128 311021 311021 311021 311021
       129 311023 311023 311023 311023
       130 311025 311025 311025 311025
       131 311033 311033 311033 311033
       132 311034 311034 311034 311034
       133 311037 311037 311037 311037
       134 311042 311042 311042 311042
       135 311044 311044 311044 311044
       136 311045 311045 311045 311045
       137 311049 311049 311049 311049
       138 311050 311050 311050 311050
       139 311052 311052 311052 311052
       140 311057 311057 311057 311057
       141 311061 311061 311061 311061
       142 311062 311062 311062 311062
       143 311064 311064 311064 311064
       144 311068 311068 311068 311068
       145 311072 311072 311072 311072
       146 311073 311073 311073 311073
       147 311081 311081 311081 311081
       148 311083 311083 311083 311083
       149 311084 311084 311084 311084
       150 311088 311088 311088 311088
       151 311089 311089 311089 311089
       152 311091 311091 311091 311091
       153 311097 311097 311097 311097
       154 311100 311100 311100 311100
       155 311102 311102 311102 311102
       156 311110 311110 311110 311110
       157 311111 311111 311111 311111
       158 311114 311114 311114 311114
       159 311119 311119 311119 311119
       160 311121 311121 311121 311121
       161 311122 311122 311122 311122
       162 311125 311125 311125 311125
       163 311126 311126 311126 311126
       164 311128 311128 311128 311128
       165 311133 311133 311133 311133
       166 311137 311137 311137 311137
       167 311138 311138 311138 311138
       168 311140 311140 311140 311140
       169 311148 311148 311148 311148
       170 311149 311149 311149 311149
       171 311152 311152 311152 311152
       172 311157 311157 311157 311157
       173 311159 311159 311159 311159
       174 311160 311160 311160 311160
       175 311164 311164 311164 311164
       176 311165 311165 311165 311165
       177 311167 311167 311167 311167
       178 311175 311175 311175 311175
       179 311177 311177 311177 311177
       180 311179 311179 311179 311179
       181 311187 311187 311187 311187
       182 311188 311188 311188 311188
       183 311190 311190 311190 311190
       184 311196 311196 311196 311196
       185 311198 311198 311198 311198
       186 311199 311199 311199 311199
       187 311203 311203 311203 311203
       188 311204 311204 311204 311204
       189 311206 311206 311206 311206
       190 311210 311210 311210 311210
       191 311213 311213 311213 311213
       192 311215 311215 311215 311215
       193 311217 311217 311217 311217
       194 311225 311225 311225 311225
       195 311226 311226 311226 311226
       196 311229 311229 311229 311229
       197 311234 311234 311234 311234
       198 311236 311236 311236 311236
       199 311237 311237 311237 311237
       200 311241 311241 311241 311241
       201 311242 311242 311242 311242
       202 311244 311244 311244 311244
       203 311248 311248 311248 311248
       204 311249 311249 311249 311249
       205 311251 311251 311251 311251
       206 311254 311254 311254 311254
       207 311256 311256 311256 311256
       208 311264 311264 311264 311264
       209 311265 311265 311265 311265
       210 311267 311267 311267 311267
       211 311271 311271 311271 311271
       212 311273 311273 311273 311273
       213 311274 311274 311274 311274
       214 311278 311278 311278 311278
       215 311279 311279 311279 311279
       216 311281 311281 311281 311281
       217 311286 311286 311286 311286
       218 311288 311288 311288 311288
       219 311290 311290 311290 311290
       220 311298 311298 311298 311298
       221 311299 311299 311299 311299
       222 311301 311301 311301 311301
       223 311302 311302 311302 311302
       224 311307 311307 311307 311307
       225 311309 311309 311309 311309
       226 311310 311310 311310 311310
       227 311314 311314 311314 311314
       228 311315 311315 311315 311315
       229 311317 311317 311317 311317
       230 311323 311323 311323 311323
       231 311324 311324 311324 311324
       232 311326 311326 311326 311326
       233 311334 311334 311334 311334
       234 311335 311335 311335 311335
       235 311337 311337 311337 311337
       236 311338 311338 311338 311338
       237 311343 311343 311343 311343
       238 311345 311345 311345 311345
       239 311346 311346 311346 311346
       240 311350 311350 311350 311350
       241 311351 311351 311351 311351
       242 311353 311353 311353 311353
       243 311358 311358 311358 311358
       244 311359 311359 311359 311359
       245 311361 311361 311361 311361
       246 311363 311363 311363 311363
       247 311370 311370 311370 311370
       248 311372 311372 311372 311372
       249 311374 311374 311374 311374
       250 311375 311375 311375 311375
       251 311380 311380 311380 311380
       252 311382 311382 311382 311382
       253 311383 311383 311383 311383
       254 311387 311387 311387 311387
       255 311388 311388 311388 311388
       256 311390 311390 311390 311390
       257 311394 311394 311394 311394
       258 311395 311395 311395 311395
       259 311397 311397 311397 311397
       260 311399 311399 311399 311399
       261 311401 311401 311401 311401
       262 311407 311407 311407 311407
       263 311409 311409 311409 311409
       264 311411 311411 311411 311411
       265 311412 311412 311412 311412
       266 311417 311417 311417 311417
       267 311419 311419 311419 311419
       268 311420 311420 311420 311420
       269 311424 311424 311424 311424
       270 311425 311425 311425 311425
       271 311427 311427 311427 311427
       272 311432 311432 311432 311432
       273 311434 311434 311434 311434
       274 311436 311436 311436 311436
       275 311440 311440 311440 311440
       276 311443 311443 311443 311443
       277 311444 311444 311444 311444
       278 311445 311445 311445 311445
       279 311447 311447 311447 311447
       280 311453 311453 311453 311453
       281 311455 311455 311455 311455
       282 311456 311456 311456 311456
       283 311460 311460 311460 311460
       284 311461 311461 311461 311461
       285 311463 311463 311463 311463
       286 311467 311467 311467 311467
       287 311469 311469 311469 311469
       288 311471 311471 311471 311471
       289 311473 311473 311473 311473
       290 311477 311477 311477 311477
       291 311480 311480 311480 311480
       292 311482 311482 311482 311482
       293 311484 311484 311484 311484
       294 311485 311485 311485 311485
       295 311490 311490 311490 311490
       296 311492 311492 311492 311492
       297 311493 311493 311493 311493
       298 311497 311497 311497 311497
       299 311498 311498 311498 311498
       300 311500 311500 311500 311500
       301 311507 311507 311507 311507
       302 311509 311509 311509 311509
       303 311514 311514 311514 311514
       304 311515 311515 311515 311515
       305 311518 311518 311518 311518
       306 311520 311520 311520 311520
       307 311522 311522 311522 311522
       308 311523 311523 311523 311523
       309 311528 311528 311528 311528
       310 311530 311530 311530 311530
       311 311531 311531 311531 311531
       312 311535 311535 311535 311535
       313 311536 311536 311536 311536
       314 311538 311538 311538 311538
       315 311542 311542 311542 311542
       316 311544 311544 311544 311544
       317 311546 311546 311546 311546
       318 311551 311551 311551 311551
       319 311552 311552 311552 311552
       320 311555 311555 311555 311555
       321 311557 311557 311557 311557
       322 311559 311559 311559 311559
       323 311560 311560 311560 311560
       324 311565 311565 311565 311565
       325 311566 311566 311566 311566
       326 311567 311567 311567 311567
       327 311571 311571 311571 311571
       328 311572 311572 311572 311572
       329 311574 311574 311574 311574
       330 311580 311580 311580 311580
       331 311582 311582 311582 311582
       332 311587 311587 311587 311587
       333 311588 311588 311588 311588
       334 311591 311591 311591 311591
       335 311592 311592 311592 311592
       336 311593 311593 311593 311593
       337 311595 311595 311595 311595
       338 311603 311603 311603 311603
       339 311604 311604 311604 311604
       340 311608 311608 311608 311608
       341 311609 311609 311609 311609
       342 311611 311611 311611 311611
       343 311615 311615 311615 311615
       344 311617 311617 311617 311617
       345 311619 311619 311619 311619
       346 311620 311620 311620 311620
       347 311622 311622 311622 311622
       348 311626 311626 311626 311626
       349 311627 311627 311627 311627
       350 311631 311631 311631 311631
       351 311633 311633 311633 311633
       352 311634 311634 311634 311634
       353 311641 311641 311641 311641
       354 311642 311642 311642 311642
       355 311646 311646 311646 311646
       356 311647 311647 311647 311647
       357 311649 311649 311649 311649
       358 311654 311654 311654 311654
       359 311655 311655 311655 311655
       360 311657 311657 311657 311657
       361 311659 311659 311659 311659
       362 311662 311662 311662 311662
       363 311663 311663 311663 311663
       364 311666 311666 311666 311666
       365 311668 311668 311668 311668
       366 311670 311670 311670 311670
       367 311671 311671 311671 311671
       368 311678 311678 311678 311678
       369 311679 311679 311679 311679
       370 311683 311683 311683 311683
       371 311684 311684 311684 311684
       372 311686 311686 311686 311686
       373 311691 311691 311691 311691
       374 311694 311694 311694 311694
       375 311698 311698 311698 311698
       376 311699 311699 311699 311699
       377 311702 311702 311702 311702
       378 311704 311704 311704 311704
       379 311706 311706 311706 311706
       380 311707 311707 311707 311707
       381 311714 311714 311714 311714
       382 311715 311715 311715 311715
       383 311719 311719 311719 311719
       384 311720 311720 311720 311720
       385 311722 311722 311722 311722
       386 311726 311726 311726 311726
       387 311730 311730 311730 311730
       388 311732 311732 311732 311732
       389 311737 311737 311737 311737
       390 311738 311738 311738 311738
       391 311741 311741 311741 311741
       392 311742 311742 311742 311742
       393 311743 311743 311743 311743
       394 311745 311745 311745 311745
       395 311753 311753 311753 311753
       396 311754 311754 311754 311754
       397 311758 311758 311758 311758
       398 311759 311759 311759 311759
       399 311761 311761 311761 311761
       400 311766 311766 311766 311766
       401 311767 311767 311767 311767
       402 311770 311770 311770 311770
       403 311772 311772 311772 311772
       404 311777 311777 311777 311777
       405 311778 311778 311778 311778
       406 311781 311781 311781 311781
       407 311783 311783 311783 311783
       408 311785 311785 311785 311785
       409 311786 311786 311786 311786
       410 311792 311792 311792 311792
       411 311793 311793 311793 311793
       412 311797 311797 311797 311797
       413 311798 311798 311798 311798
       414 311800 311800 311800 311800
       415 311805 311805 311805 311805
       416 311807 311807 311807 311807
       417 311809 311809 311809 311809
       418 311814 311814 311814 311814
       419 311815 311815 311815 311815
       420 311818 311818 311818 311818
       421 311820 311820 311820 311820
       422 311822 311822 311822 311822
       423 311823 311823 311823 311823
       424 311830 311830 311830 311830
       425 311831 311831 311831 311831
       426 311835 311835 311835 311835
       427 311836 311836 311836 311836
       428 311846 311846 311846 311846
       429 311848 311848 311848 311848
       430 311849 311849 311849 311849
       431 311853 311853 311853 311853
       432 311854 311854 311854 311854
       433 311857 311857 311857 311857
       434 311859 311859 311859 311859
       435 311861 311861 311861 311861
       436 311862 311862 311862 311862
       437 311867 311867 311867 311867
       438 311869 311869 311869 311869
       439 311870 311870 311870 311870
       440 311874 311874 311874 311874
       441 311875 311875 311875 311875
       442 311882 311882 311882 311882
       443 311884 311884 311884 311884
       444 311888 311888 311888 311888
       445 311889 311889 311889 311889
       446 311890 311890 311890 311890
       447 311894 311894 311894 311894
       448 311895 311895 311895 311895
       449 311897 311897 311897 311897
       450 311903 311903 311903 311903
       451 311904 311904 311904 311904
       452 311905 311905 311905 311905
       453 311906 311906 311906 311906
       454 311910 311910 311910 311910
       455 311911 311911 311911 311911
       456 311919 311919 311919 311919
       457 311921 311921 311921 311921
       458 311923 311923 311923 311923
       459 311928 311928 311928 311928
       460 311929 311929 311929 311929
       461 311932 311932 311932 311932
       462 311934 311934 311934 311934
       463 311936 311936 311936 311936
       464 311937 311937 311937 311937
       465 311942 311942 311942 311942
       466 311943 311943 311943 311943
       467 311944 311944 311944 311944
       468 311945 311945 311945 311945
       469 311949 311949 311949 311949
       470 311950 311950 311950 311950
       471 311961 311961 311961 311961
       472 311962 311962 311962 311962
       473 311964 311964 311964 311964
       474 311969 311969 311969 311969
       475 311970 311970 311970 311970
       476 311973 311973 311973 311973
       477 311975 311975 311975 311975
       478 311977 311977 311977 311977
       479 311978 311978 311978 311978
       480 311983 311983 311983 311983
       481 311984 311984 311984 311984
       482 311985 311985 311985 311985
       483 311986 311986 311986 311986
       484 311990 311990 311990 311990
       485 311991 311991 311991 311991
       486 311997 311997 311997 311997
       487 312000 312000 312000 312000
       488 312001 312001 312001 312001
       489 312003 312003 312003 312003
       490 312008 312008 312008 312008
       491 312009 312009 312009 312009
       492 312010 312010 312010 312010
       493 312014 312014 312014 312014
       494 312016 312016 312016 312016
       495 312017 312017 312017 312017
       496 312022 312022 312022 312022
       497 312023 312023 312023 312023
       498 312024 312024 312024 312024
       499 312025 312025 312025 312025
       500 312029 312029 312029 312029
       501 312030 312030 312030 312030
       502 312036 312036 312036 312036
       503 312038 312038 312038 312038
       504 312039 312039 312039 312039
       505 312041 312041 312041 312041
       506 312046 312046 312046 312046
       507 312047 312047 312047 312047
       508 312050 312050 312050 312050
       509 312052 312052 312052 312052
       510 312054 312054 312054 312054
       511 312055 312055 312055 312055
       512 312060 312060 312060 312060
       513 312061 312061 312061 312061
       514 312062 312062 312062 312062
       515 312063 312063 312063 312063
       516 312067 312067 312067 312067
       517 312068 312068 312068 312068
       518 312074 312074 312074 312074
       519 312075 312075 312075 312075
       520 312077 312077 312077 312077
       521 312082 312082 312082 312082
       522 312083 312083 312083 312083
       523 312086 312086 312086 312086
       524 312088 312088 312088 312088
       525 312090 312090 312090 312090
       526 312091 312091 312091 312091
       527 312096 312096 312096 312096
       528 312097 312097 312097 312097
       529 312098 312098 312098 312098
       530 312099 312099 312099 312099
       531 312103 312103 312103 312103
       532 312104 312104 312104 312104
       533 312112 312112 312112 312112
       534 312118 312118 312118 312118
       535 312119 312119 312119 312119
       536 312122 312122 312122 312122
       537 312124 312124 312124 312124
       538 312126 312126 312126 312126
       539 312131 312131 312131 312131
       540 312132 312132 312132 312132
       541 312133 312133 312133 312133
       542 312134 312134 312134 312134
       543 312138 312138 312138 312138
       544 312139 312139 312139 312139
       545 312147 312147 312147 312147
       546 312149 312149 312149 312149
       547 312154 312154 312154 312154
       548 312155 312155 312155 312155
       549 312158 312158 312158 312158
       550 312163 312163 312163 312163
       551 312168 312168 312168 312168
       552 312169 312169 312169 312169
       553 312170 312170 312170 312170
       554 312171 312171 312171 312171
       555 312175 312175 312175 312175
       556 312176 312176 312176 312176
       557 312185 312185 312185 312185
       558 312187 312187 312187 312187
       559 312192 312192 312192 312192
       560 312193 312193 312193 312193
       561 312196 312196 312196 312196
       562 312201 312201 312201 312201
       563 312206 312206 312206 312206
       564 312207 312207 312207 312207
       565 312208 312208 312208 312208
       566 312209 312209 312209 312209
       567 312213 312213 312213 312213
       568 312214 312214 312214 312214
       569 312223 312223 312223 312223
       570 312225 312225 312225 312225
       571 312229 312229 312229 312229
       572 312230 312230 312230 312230
       573 312233 312233 312233 312233
       574 312238 312238 312238 312238
       575 312243 312243 312243 312243
       576 312244 312244 312244 312244
       577 312245 312245 312245 312245
       578 312250 312250 312250 312250
       579 312251 312251 312251 312251
       580 312258 312258 312258 312258
       581 312260 312260 312260 312260
       582 312261 312261 312261 312261
       583 312265 312265 312265 312265
       584 312266 312266 312266 312266
       585 312269 312269 312269 312269
       586 312274 312274 312274 312274
       587 312279 312279 312279 312279
       588 312280 312280 312280 312280
       589 312281 312281 312281 312281
       590 312286 312286 312286 312286
       591 312287 312287 312287 312287
       592 312295 312295 312295 312295
       593 312297 312297 312297 312297
       594 312298 312298 312298 312298
       595 312302 312302 312302 312302
       596 312303 312303 312303 312303
       597 312306 312306 312306 312306
       598 312311 312311 312311 312311
       599 312316 312316 312316 312316
       600 312317 312317 312317 312317
       601 312318 312318 312318 312318
       602 312323 312323 312323 312323
       603 312324 312324 312324 312324
       604 312330 312330 312330 312330
       605 312334 312334 312334 312334
       606 312336 312336 312336 312336
       607 312337 312337 312337 312337
       608 312341 312341 312341 312341
       609 312342 312342 312342 312342
       610 312345 312345 312345 312345
       611 312350 312350 312350 312350
       612 312355 312355 312355 312355
       613 312356 312356 312356 312356
       614 312357 312357 312357 312357
       615 312362 312362 312362 312362
       616 312363 312363 312363 312363
       617 312372 312372 312372 312372
       618 312373 312373 312373 312373
       619 312375 312375 312375 312375
       620 312379 312379 312379 312379
       621 312380 312380 312380 312380
       622 312383 312383 312383 312383
       623 312388 312388 312388 312388
       624 312393 312393 312393 312393
       625 312394 312394 312394 312394
       626 312395 312395 312395 312395
       627 312400 312400 312400 312400
       628 312401 312401 312401 312401
       629 312410 312410 312410 312410
       630 312412 312412 312412 312412
       631 312413 312413 312413 312413
       632 312417 312417 312417 312417
       633 312418 312418 312418 312418
       634 312420 312420 312420 312420
       635 312425 312425 312425 312425
       636 312430 312430 312430 312430
       637 312431 312431 312431 312431
       638 312432 312432 312432 312432
       639 312437 312437 312437 312437
       640 312438 312438 312438 312438
       641 312445 312445 312445 312445
       642 312447 312447 312447 312447
       643 312448 312448 312448 312448
       644 312452 312452 312452 312452
       645 312453 312453 312453 312453
       646 312456 312456 312456 312456
       647 312457 312457 312457 312457
       648 312465 312465 312465 312465
       649 312466 312466 312466 312466
       650 312467 312467 312467 312467
       651 312472 312472 312472 312472
       652 312473 312473 312473 312473
       653 312479 312479 312479 312479
       654 312480 312480 312480 312480
       655 312482 312482 312482 312482
       656 312486 312486 312486 312486
       657 312487 312487 312487 312487
       658 312490 312490 312490 312490
       659 312495 312495 312495 312495
       660 312500 312500 312500 312500
       661 312501 312501 312501 312501
       662 312502 312502 312502 312502
       663 312507 312507 312507 312507
       664 312508 312508 312508 312508
       665 312514 312514 312514 312514
       666 312517 312517 312517 312517
       667 312519 312519 312519 312519
       668 312520 312520 312520 312520
       669 312524 312524 312524 312524
       670 312525 312525 312525 312525
       671 312529 312529 312529 312529
       672 312533 312533 312533 312533
       673 312538 312538 312538 312538
       674 312539 312539 312539 312539
       675 312540 312540 312540 312540
       676 312545 312545 312545 312545
       677 312546 312546 312546 312546
       678 312553 312553 312553 312553
       679 312555 312555 312555 312555
       680 312556 312556 312556 312556
       681 312559 312559 312559 312559
       682 312560 312560 312560 312560
       683 312563 312563 312563 312563
       684 312567 312567 312567 312567
       685 312571 312571 312571 312571
       686 312572 312572 312572 312572
       687 312573 312573 312573 312573
       688 312578 312578 312578 312578
       689 312579 312579 312579 312579
       690 312587 312587 312587 312587
       691 312588 312588 312588 312588
       692 312590 312590 312590 312590
       693 312594 312594 312594 312594
       694 312595 312595 312595 312595
       695 312599 312599 312599 312599
       696 312603 312603 312603 312603
       697 312605 312605 312605 312605
       698 312608 312608 312608 312608
       699 312609 312609 312609 312609
       700 312610 312610 312610 312610
       701 312615 312615 312615 312615
       702 312616 312616 312616 312616
       703 312621 312621 312621 312621
       704 312623 312623 312623 312623
       705 312626 312626 312626 312626
       706 312628 312628 312628 312628
       707 312629 312629 312629 312629
       708 312633 312633 312633 312633
       709 312637 312637 312637 312637
       710 312641 312641 312641 312641
       711 312646 312646 312646 312646
       712 312647 312647 312647 312647
       713 312648 312648 312648 312648
       714 312653 312653 312653 312653
       715 312654 312654 312654 312654
       716 312659 312659 312659 312659
       717 312661 312661 312661 312661
       718 312663 312663 312663 312663
       719 312664 312664 312664 312664
       720 312668 312668 312668 312668
       721 312673 312673 312673 312673
       722 312677 312677 312677 312677
       723 312682 312682 312682 312682
       724 312683 312683 312683 312683
       725 312684 312684 312684 312684
       726 312689 312689 312689 312689
       727 312690 312690 312690 312690
       728 312699 312699 312699 312699
       729 312701 312701 312701 312701
       730 312702 312702 312702 312702
       731 312710 312710 312710 312710
       732 312714 312714 312714 312714
       733 312719 312719 312719 312719
       734 312720 312720 312720 312720
       735 312721 312721 312721 312721
       736 312726 312726 312726 312726
       737 312727 312727 312727 312727
       738 312734 312734 312734 312734
       739 312736 312736 312736 312736
       740 312737 312737 312737 312737
       741 312746 312746 312746 312746
       742 312749 312749 312749 312749
       743 312754 312754 312754 312754
       744 312755 312755 312755 312755
       745 312756 312756 312756 312756
       746 312761 312761 312761 312761
       747 312762 312762 312762 312762
       748 312769 312769 312769 312769
       749 312771 312771 312771 312771
       750 312772 312772 312772 312772
       751 312781 312781 312781 312781
       752 312789 312789 312789 312789
       753 312790 312790 312790 312790
       754 312791 312791 312791 312791
       755 312796 312796 312796 312796
       756 312797 312797 312797 312797
       757 312803 312803 312803 312803
       758 312806 312806 312806 312806
       759 312808 312808 312808 312808
       760 312809 312809 312809 312809
       761 312818 312818 312818 312818
       762 312823 312823 312823 312823
       763 312826 312826 312826 312826
       764 312827 312827 312827 312827
       765 312828 312828 312828 312828
       766 312833 312833 312833 312833
       767 312834 312834 312834 312834
       768 312842 312842 312842 312842
       769 312844 312844 312844 312844
       770 312845 312845 312845 312845
       771 312854 312854 312854 312854
       772 312860 312860 312860 312860
       773 312863 312863 312863 312863
       774 312864 312864 312864 312864
       775 312865 312865 312865 312865
       776 312870 312870 312870 312870
       777 312871 312871 312871 312871
       778 312878 312878 312878 312878
       779 312879 312879 312879 312879
       780 312880 312880 312880 312880
       781 312890 312890 312890 312890
       782 312895 312895 312895 312895
       783 312898 312898 312898 312898
       784 312899 312899 312899 312899
       785 312900 312900 312900 312900
       786 312905 312905 312905 312905
       787 312906 312906 312906 312906
       788 312912 312912 312912 312912
       789 312915 312915 312915 312915
       790 312917 312917 312917 312917
       791 312919 312919 312919 312919
       792 312920 312920 312920 312920
       793 312929 312929 312929 312929
       794 312935 312935 312935 312935
       795 312938 312938 312938 312938
       796 312939 312939 312939 312939
       797 312940 312940 312940 312940
       798 312945 312945 312945 312945
       799 312946 312946 312946 312946
       800 312955 312955 312955 312955
       801 312956 312956 312956 312956
       802 312957 312957 312957 312957
       803 312965 312965 312965 312965
       804 312971 312971 312971 312971
       805 312974 312974 312974 312974
       806 312975 312975 312975 312975
       807 312976 312976 312976 312976
       808 312981 312981 312981 312981
       809 312982 312982 312982 312982
       810 312988 312988 312988 312988
       811 312992 312992 312992 312992
       812 312993 312993 312993 312993
       813 313002 313002 313002 313002
       814 313008 313008 313008 313008
       815 313011 313011 313011 313011
       816 313012 313012 313012 313012
       817 313013 313013 313013 313013
       818 313018 313018 313018 313018
       819 313019 313019 313019 313019
       820 313027 313027 313027 313027
       821 313028 313028 313028 313028
       822 313030 313030 313030 313030
       823 313031 313031 313031 313031
       824 313040 313040 313040 313040
       825 313046 313046 313046 313046
       826 313050 313050 313050 313050
       827 313051 313051 313051 313051
       828 313055 313055 313055 313055
       829 313056 313056 313056 313056
       830 313063 313063 313063 313063
       831 313065 313065 313065 313065
       832 313066 313066 313066 313066
       833 313071 313071 313071 313071
       834 313076 313076 313076 313076
       835 313082 313082 313082 313082
       836 313085 313085 313085 313085
       837 313086 313086 313086 313086
       838 313087 313087 313087 313087
       839 313092 313092 313092 313092
       840 313093 313093 313093 313093
       841 313100 313100 313100 313100
       842 313102 313102 313102 313102
       843 313104 313104 313104 313104
       844 313105 313105 313105 313105
       845 313113 313113 313113 313113
       846 313119 313119 313119 313119
       847 313122 313122 313122 313122
       848 313123 313123 313123 313123
       849 313124 313124 313124 313124
       850 313129 313129 313129 313129
       851 313130 313130 313130 313130
       852 313137 313137 313137 313137
       853 313138 313138 313138 313138
       854 313140 313140 313140 313140
       855 313141 313141 313141 313141
       856 313150 313150 313150 313150
       857 313156 313156 313156 313156
       858 313159 313159 313159 313159
       859 313160 313160 313160 313160
       860 313161 313161 313161 313161
       861 313166 313166 313166 313166
       862 313167 313167 313167 313167
       863 313173 313173 313173 313173
       864 313174 313174 313174 313174
       865 313176 313176 313176 313176
       866 313177 313177 313177 313177
       867 313184 313184 313184 313184
       868 313190 313190 313190 313190
       869 313193 313193 313193 313193
       870 313194 313194 313194 313194
       871 313195 313195 313195 313195
       872 313200 313200 313200 313200
       873 313201 313201 313201 313201
       874 313208 313208 313208 313208
       875 313209 313209 313209 313209
       876 313210 313210 313210 313210
       877 313219 313219 313219 313219
       878 313225 313225 313225 313225
       879 313228 313228 313228 313228
       880 313229 313229 313229 313229
       881 313230 313230 313230 313230
       882 313235 313235 313235 313235
       883 313236 313236 313236 313236
       884 313248 313248 313248 313248
       885 313250 313250 313250 313250
       886 313251 313251 313251 313251
       887 313259 313259 313259 313259
       888 313265 313265 313265 313265
       889 313268 313268 313268 313268
       890 313269 313269 313269 313269
       891 313270 313270 313270 313270
       892 313275 313275 313275 313275
       893 313276 313276 313276 313276
       894 313282 313282 313282 313282
       895 313285 313285 313285 313285
       896 313286 313286 313286 313286
       897 313287 313287 313287 313287
       898 313296 313296 313296 313296
       899 313302 313302 313302 313302
       900 313305 313305 313305 313305
       901 313306 313306 313306 313306
       902 313307 313307 313307 313307
       903 313312 313312 313312 313312
       904 313313 313313 313313 313313
       905 313319 313319 313319 313319
       906 313322 313322 313322 313322
       907 313323 313323 313323 313323
       908 313332 313332 313332 313332
       909 313338 313338 313338 313338
       910 313341 313341 313341 313341
       911 313342 313342 313342 313342
       912 313343 313343 313343 313343
       913 313348 313348 313348 313348
       914 313349 313349 313349 313349
       915 313355 313355 313355 313355
       916 313356 313356 313356 313356
       917 313359 313359 313359 313359
       918 313360 313360 313360 313360
       919 313367 313367 313367 313367
       920 313374 313374 313374 313374
       921 313377 313377 313377 313377
       922 313378 313378 313378 313378
       923 313379 313379 313379 313379
       924 313384 313384 313384 313384
       925 313385 313385 313385 313385
       926 313394 313394 313394 313394
       927 313395 313395 313395 313395
       928 313398 313398 313398 313398
       929 313403 313403 313403 313403
       930 313410 313410 313410 313410
       931 313413 313413 313413 313413
       932 313414 313414 313414 313414
       933 313415 313415 313415 313415
       934 313420 313420 313420 313420
       935 313431 313431 313431 313431
       936 313432 313432 313432 313432
       937 313435 313435 313435 313435
       938 313440 313440 313440 313440
       939 313447 313447 313447 313447
       940 313450 313450 313450 313450
       941 313451 313451 313451 313451
       942 313452 313452 313452 313452
       943 313457 313457 313457 313457
       944 313458 313458 313458 313458
       945 313466 313466 313466 313466
       946 313467 313467 313467 313467
       947 313470 313470 313470 313470
       948 313475 313475 313475 313475
       949 313482 313482 313482 313482
       950 313485 313485 313485 313485
       951 313486 313486 313486 313486
       952 313487 313487 313487 313487
       953 313492 313492 313492 313492
       954 313493 313493 313493 313493
       955 313503 313503 313503 313503
       956 313505 313505 313505 313505
       957 313506 313506 313506 313506
       958 313509 313509 313509 313509
       959 313512 313512 313512 313512
       960 313514 313514 313514 313514
       961 313521 313521 313521 313521
       962 313524 313524 313524 313524
       963 313525 313525 313525 313525
       964 313526 313526 313526 313526
       965 313531 313531 313531 313531
       966 313532 313532 313532 313532
       967 313539 313539 313539 313539
       968 313540 313540 313540 313540
       969 313543 313543 313543 313543
       970 313544 313544 313544 313544
       971 313547 313547 313547 313547
       972 313550 313550 313550 313550
       973 313552 313552 313552 313552
       974 313559 313559 313559 313559
       975 313562 313562 313562 313562
       976 313563 313563 313563 313563
       977 313564 313564 313564 313564
       978 313569 313569 313569 313569
       979 313570 313570 313570 313570
       980 313578 313578 313578 313578
       981 313580 313580 313580 313580
       982 313583 313583 313583 313583
       983 313584 313584 313584 313584
       984 313587 313587 313587 313587
       985 313590 313590 313590 313590
       986 313592 313592 313592 313592
       987 313599 313599 313599 313599
       988 313602 313602 313602 313602
       989 313603 313603 313603 313603
       990 313604 313604 313604 313604
       991 313609 313609 313609 313609
       992 313610 313610 313610 313610
       993 313617 313617 313617 313617
       994 313621 313621 313621 313621
       995 313622 313622 313622 313622
       996 313624 313624 313624 313624
       997 313626 313626 313626 313626
       998 313627 313627 313627 313627
       999 313634 313634 313634 313634
       1000 313637 313637 313637 313637
       1001 313639 313639 313639 313639
       1002 313644 313644 313644 313644
       1003 313645 313645 313645 313645
       1004 313652 313652 313652 313652
       1005 313656 313656 313656 313656
       1006 313657 313657 313657 313657
       1007 313658 313658 313658 313658
       1008 313660 313660 313660 313660
       1009 313662 313662 313662 313662
       1010 313663 313663 313663 313663
       1011 313671 313671 313671 313671
       1012 313674 313674 313674 313674
       1013 313676 313676 313676 313676
       1014 313681 313681 313681 313681
       1015 313682 313682 313682 313682
       1016 313689 313689 313689 313689
       1017 313690 313690 313690 313690
       1018 313691 313691 313691 313691
       1019 313695 313695 313695 313695
       1020 313696 313696 313696 313696
       1021 313697 313697 313697 313697
       1022 313699 313699 313699 313699
       1023 313701 313701 313701 313701
       1024 313702 313702 313702 313702
       1025 313710 313710 313710 313710
       1026 313715 313715 313715 313715
       1027 313720 313720 313720 313720
       1028 313721 313721 313721 313721
       1029 313727 313727 313727 313727
       1030 313728 313728 313728 313728
       1031 313731 313731 313731 313731
       1032 313733 313733 313733 313733
       1033 313736 313736 313736 313736
       1034 313737 313737 313737 313737
       1035 313738 313738 313738 313738
       1036 313740 313740 313740 313740
       1037 313742 313742 313742 313742
       1038 313743 313743 313743 313743
       1039 313751 313751 313751 313751
       1040 313756 313756 313756 313756
       1041 313761 313761 313761 313761
       1042 313762 313762 313762 313762
       1043 313768 313768 313768 313768
       1044 313769 313769 313769 313769
       1045 313770 313770 313770 313770
       1046 313774 313774 313774 313774
       1047 313775 313775 313775 313775
       1048 313776 313776 313776 313776
       1049 313778 313778 313778 313778
       1050 313780 313780 313780 313780
       1051 313781 313781 313781 313781
       1052 313790 313790 313790 313790
       1053 313793 313793 313793 313793
       1054 313795 313795 313795 313795
       1055 313800 313800 313800 313800
       1056 313801 313801 313801 313801
       1057 313807 313807 313807 313807
       1058 313809 313809 313809 313809
       1059 313810 313810 313810 313810
       1060 313814 313814 313814 313814
       1061 313815 313815 313815 313815
       1062 313816 313816 313816 313816
       1063 313818 313818 313818 313818
       1064 313820 313820 313820 313820
       1065 313821 313821 313821 313821
       1066 313830 313830 313830 313830
       1067 313833 313833 313833 313833
       1068 313835 313835 313835 313835
       1069 313840 313840 313840 313840
       1070 313841 313841 313841 313841
       1071 313848 313848 313848 313848
       1072 313849 313849 313849 313849
       1073 313853 313853 313853 313853
       1074 313854 313854 313854 313854
       1075 313855 313855 313855 313855
       1076 313857 313857 313857 313857
       1077 313859 313859 313859 313859
       1078 313860 313860 313860 313860
       1079 313867 313867 313867 313867
       1080 313869 313869 313869 313869
       1081 313872 313872 313872 313872
       1082 313874 313874 313874 313874
       1083 313879 313879 313879 313879
       1084 313880 313880 313880 313880
       1085 313888 313888 313888 313888
       1086 313891 313891 313891 313891
       1087 313893 313893 313893 313893
       1088 313896 313896 313896 313896
       1089 313897 313897 313897 313897
       1090 313898 313898 313898 313898
       1091 313900 313900 313900 313900
       1092 313902 313902 313902 313902
       1093 313903 313903 313903 313903
       1094 313912 313912 313912 313912
       1095 313915 313915 313915 313915
       1096 313917 313917 313917 313917
       1097 313918 313918 313918 313918
       1098 313922 313922 313922 313922
       1099 313923 313923 313923 313923
       1100 313929 313929 313929 313929
       1101 313930 313930 313930 313930
       1102 313934 313934 313934 313934
       1103 313935 313935 313935 313935
       1104 313936 313936 313936 313936
       1105 313938 313938 313938 313938
       1106 313940 313940 313940 313940
       1107 313941 313941 313941 313941
       1108 313950 313950 313950 313950
       1109 313953 313953 313953 313953
       1110 313955 313955 313955 313955
       1111 313956 313956 313956 313956
       1112 313960 313960 313960 313960
       1113 313961 313961 313961 313961
       1114 313970 313970 313970 313970
       1115 313974 313974 313974 313974
       1116 313975 313975 313975 313975
       1117 313976 313976 313976 313976
       1118 313978 313978 313978 313978
       1119 313980 313980 313980 313980
       1120 313981 313981 313981 313981
       1121 313990 313990 313990 313990
       1122 313993 313993 313993 313993
       1123 313995 313995 313995 313995
       1124 313996 313996 313996 313996
       1125 314000 314000 314000 314000
       1126 314009 314009 314009 314009
       1127 314012 314012 314012 314012
       1128 314013 314013 314013 314013
       1129 314014 314014 314014 314014
       1130 314016 314016 314016 314016
       1131 314018 314018 314018 314018
       1132 314019 314019 314019 314019
       1133 314028 314028 314028 314028
       1134 314031 314031 314031 314031
       1135 314033 314033 314033 314033
       1136 314034 314034 314034 314034
       1137 314037 314037 314037 314037
       1138 314038 314038 314038 314038
       1139 314044 314044 314044 314044
       1140 314045 314045 314045 314045
       1141 314046 314046 314046 314046
       1142 314050 314050 314050 314050
       1143 314051 314051 314051 314051
       1144 314052 314052 314052 314052
       1145 314054 314054 314054 314054
       1146 314056 314056 314056 314056
       1147 314057 314057 314057 314057
       1148 314066 314066 314066 314066
       1149 314069 314069 314069 314069
       1150 314071 314071 314071 314071
       1151 314072 314072 314072 314072
       1152 314076 314076 314076 314076
       1153 314077 314077 314077 314077
       1154 314087 314087 314087 314087
       1155 314088 314088 314088 314088
       1156 314089 314089 314089 314089
       1157 314091 314091 314091 314091
       1158 314093 314093 314093 314093
       1159 314094 314094 314094 314094
       1160 314103 314103 314103 314103
       1161 314106 314106 314106 314106
       1162 314108 314108 314108 314108
       1163 314109 314109 314109 314109
       1164 314113 314113 314113 314113
       1165 314114 314114 314114 314114
       1166 314120 314120 314120 314120
       1167 314121 314121 314121 314121
       1168 314128 314128 314128 314128
       1169 314129 314129 314129 314129
       1170 314130 314130 314130 314130
       1171 314132 314132 314132 314132
       1172 314134 314134 314134 314134
       1173 314135 314135 314135 314135
       1174 314144 314144 314144 314144
       1175 314147 314147 314147 314147
       1176 314149 314149 314149 314149
       1177 314150 314150 314150 314150
       1178 314154 314154 314154 314154
       1179 314155 314155 314155 314155
       1180 314164 314164 314164 314164
       1181 314165 314165 314165 314165
       1182 314166 314166 314166 314166
       1183 314168 314168 314168 314168
       1184 314170 314170 314170 314170
       1185 314171 314171 314171 314171
       1186 314179 314179 314179 314179
       1187 314184 314184 314184 314184
       1188 314185 314185 314185 314185
       1189 314189 314189 314189 314189
       1190 314190 314190 314190 314190
       1191 314201 314201 314201 314201
       1192 314202 314202 314202 314202
       1193 314203 314203 314203 314203
       1194 314205 314205 314205 314205
       1195 314207 314207 314207 314207
       1196 314208 314208 314208 314208
       1197 314217 314217 314217 314217
       1198 314220 314220 314220 314220
       1199 314222 314222 314222 314222
       1200 314223 314223 314223 314223
       1201 314227 314227 314227 314227
       1202 314228 314228 314228 314228
       1203 314241 314241 314241 314241
       1204 314242 314242 314242 314242
       1205 314244 314244 314244 314244
       1206 314245 314245 314245 314245
       1207 314246 314246 314246 314246
       1208 314247 314247 314247 314247
       1209 314256 314256 314256 314256
       1210 314259 314259 314259 314259
       1211 314261 314261 314261 314261
       1212 314262 314262 314262 314262
       1213 314266 314266 314266 314266
       1214 314267 314267 314267 314267
       1215 314276 314276 314276 314276
       1216 314281 314281 314281 314281
       1217 314282 314282 314282 314282
       1218 314284 314284 314284 314284
       1219 314285 314285 314285 314285
       1220 314286 314286 314286 314286
       1221 314287 314287 314287 314287
       1222 314296 314296 314296 314296
       1223 314299 314299 314299 314299
       1224 314301 314301 314301 314301
       1225 314302 314302 314302 314302
       1226 314306 314306 314306 314306
       1227 314307 314307 314307 314307
       1228 314319 314319 314319 314319
       1229 314320 314320 314320 314320
       1230 314322 314322 314322 314322
       1231 314323 314323 314323 314323
       1232 314324 314324 314324 314324
       1233 314325 314325 314325 314325
       1234 314334 314334 314334 314334
       1235 314337 314337 314337 314337
       1236 314339 314339 314339 314339
       1237 314340 314340 314340 314340
       1238 314344 314344 314344 314344
       1239 314345 314345 314345 314345
       1240 314357 314357 314357 314357
       1241 314358 314358 314358 314358
       1242 314360 314360 314360 314360
       1243 314361 314361 314361 314361
       1244 314362 314362 314362 314362
       1245 314363 314363 314363 314363
       1246 314372 314372 314372 314372
       1247 314375 314375 314375 314375
       1248 314377 314377 314377 314377
       1249 314378 314378 314378 314378
       1250 314382 314382 314382 314382
       1251 314383 314383 314383 314383
       1252 314397 314397 314397 314397
       1253 314400 314400 314400 314400
       1254 314401 314401 314401 314401
       1255 314402 314402 314402 314402
       1256 314403 314403 314403 314403
       1257 314411 314411 314411 314411
       1258 314414 314414 314414 314414
       1259 314416 314416 314416 314416
       1260 314417 314417 314417 314417
       1261 314421 314421 314421 314421
       1262 314422 314422 314422 314422
       1263 314435 314435 314435 314435
       1264 314438 314438 314438 314438
       1265 314439 314439 314439 314439
       1266 314440 314440 314440 314440
       1267 314441 314441 314441 314441
       1268 314449 314449 314449 314449
       1269 314452 314452 314452 314452
       1270 314454 314454 314454 314454
       1271 314455 314455 314455 314455
       1272 314459 314459 314459 314459
       1273 314460 314460 314460 314460
       1274 314476 314476 314476 314476
       1275 314477 314477 314477 314477
       1276 314478 314478 314478 314478
       1277 314479 314479 314479 314479
       1278 314480 314480 314480 314480
       1279 314488 314488 314488 314488
       1280 314491 314491 314491 314491
       1281 314493 314493 314493 314493
       1282 314494 314494 314494 314494
       1283 314498 314498 314498 314498
       1284 314499 314499 314499 314499
       1285 314505 314505 314505 314505
       1286 314506 314506 314506 314506
       1287 314508 314508 314508 314508
       1288 314515 314515 314515 314515
       1289 314517 314517 314517 314517
       1290 314518 314518 314518 314518
       1291 314519 314519 314519 314519
       1292 314520 314520 314520 314520
       1293 314529 314529 314529 314529
       1294 314532 314532 314532 314532
       1295 314534 314534 314534 314534
       1296 314535 314535 314535 314535
       1297 314539 314539 314539 314539
       1298 314540 314540 314540 314540
       1299 314553 314553 314553 314553
       1300 314555 314555 314555 314555
       1301 314556 314556 314556 314556
       1302 314557 314557 314557 314557
       1303 314558 314558 314558 314558
       1304 314567 314567 314567 314567
       1305 314570 314570 314570 314570
       1306 314572 314572 314572 314572
       1307 314573 314573 314573 314573
       1308 314577 314577 314577 314577
       1309 314578 314578 314578 314578
       1310 314579 314579 314579 314579
       1311 314593 314593 314593 314593
       1312 314596 314596 314596 314596
       1313 314597 314597 314597 314597
       1314 314598 314598 314598 314598
       1315 314599 314599 314599 314599
       1316 314608 314608 314608 314608
       1317 314611 314611 314611 314611
       1318 314613 314613 314613 314613
       1319 314614 314614 314614 314614
       1320 314618 314618 314618 314618
       1321 314619 314619 314619 314619
       1322 314620 314620 314620 314620
       1323 314627 314627 314627 314627
       1324 314635 314635 314635 314635
       1325 314638 314638 314638 314638
       1326 314639 314639 314639 314639
       1327 314640 314640 314640 314640
       1328 314649 314649 314649 314649
       1329 314652 314652 314652 314652
       1330 314654 314654 314654 314654
       1331 314655 314655 314655 314655
       1332 314659 314659 314659 314659
       1333 314660 314660 314660 314660
       1334 314661 314661 314661 314661
       1335 314667 314667 314667 314667
       1336 314676 314676 314676 314676
       1337 314679 314679 314679 314679
       1338 314680 314680 314680 314680
       1339 314681 314681 314681 314681
       1340 314691 314691 314691 314691
       1341 314694 314694 314694 314694
       1342 314696 314696 314696 314696
       1343 314697 314697 314697 314697
       1344 314701 314701 314701 314701
       1345 314702 314702 314702 314702
       1346 314703 314703 314703 314703
       1347 314708 314708 314708 314708
       1348 314717 314717 314717 314717
       1349 314719 314719 314719 314719
       1350 314720 314720 314720 314720
       1351 314721 314721 314721 314721
       1352 314731 314731 314731 314731
       1353 314734 314734 314734 314734
       1354 314736 314736 314736 314736
       1355 314737 314737 314737 314737
       1356 314741 314741 314741 314741
       1357 314742 314742 314742 314742
       1358 314750 314750 314750 314750
       1359 314758 314758 314758 314758
       1360 314760 314760 314760 314760
       1361 314761 314761 314761 314761
       1362 314763 314763 314763 314763
       1363 314764 314764 314764 314764
       1364 314773 314773 314773 314773
       1365 314776 314776 314776 314776
       1366 314778 314778 314778 314778
       1367 314779 314779 314779 314779
       1368 314783 314783 314783 314783
       1369 314784 314784 314784 314784
       1370 314801 314801 314801 314801
       1371 314802 314802 314802 314802
       1372 314803 314803 314803 314803
       1373 314804 314804 314804 314804
       1374 314814 314814 314814 314814
       1375 314817 314817 314817 314817
       1376 314819 314819 314819 314819
       1377 314820 314820 314820 314820
       1378 314824 314824 314824 314824
       1379 314825 314825 314825 314825
       1380 314832 314832 314832 314832
       1381 314840 314840 314840 314840
       1382 314842 314842 314842 314842
       1383 314843 314843 314843 314843
       1384 314844 314844 314844 314844
       1385 314845 314845 314845 314845
       1386 314855 314855 314855 314855
       1387 314858 314858 314858 314858
       1388 314860 314860 314860 314860
       1389 314861 314861 314861 314861
       1390 314865 314865 314865 314865
       1391 314866 314866 314866 314866
       1392 314882 314882 314882 314882
       1393 314884 314884 314884 314884
       1394 314885 314885 314885 314885
       1395 314886 314886 314886 314886
       1396 314896 314896 314896 314896
       1397 314899 314899 314899 314899
       1398 314901 314901 314901 314901
       1399 314902 314902 314902 314902
       1400 314906 314906 314906 314906
       1401 314907 314907 314907 314907
       1402 314922 314922 314922 314922
       1403 314924 314924 314924 314924
       1404 314925 314925 314925 314925
       1405 314926 314926 314926 314926
       1406 314936 314936 314936 314936
       1407 314939 314939 314939 314939
       1408 314941 314941 314941 314941
       1409 314942 314942 314942 314942
       1410 314946 314946 314946 314946
       1411 314947 314947 314947 314947
       1412 314958 314958 314958 314958
       1413 314962 314962 314962 314962
       1414 314963 314963 314963 314963
       1415 314964 314964 314964 314964
       1416 314974 314974 314974 314974
       1417 314977 314977 314977 314977
       1418 314980 314980 314980 314980
       1419 314984 314984 314984 314984
       1420 314985 314985 314985 314985
       1421 315000 315000 315000 315000
       1422 315001 315001 315001 315001
       1423 315002 315002 315002 315002
       1424 315004 315004 315004 315004
       1425 315013 315013 315013 315013
       1426 315016 315016 315016 315016
       1427 315019 315019 315019 315019
       1428 315023 315023 315023 315023
       1429 315024 315024 315024 315024
       1430 315038 315038 315038 315038
       1431 315040 315040 315040 315040
       1432 315041 315041 315041 315041
       1433 315042 315042 315042 315042
       1434 315053 315053 315053 315053
       1435 315056 315056 315056 315056
       1436 315058 315058 315058 315058
       1437 315062 315062 315062 315062
       1438 315063 315063 315063 315063
       1439 315074 315074 315074 315074
       1440 315076 315076 315076 315076
       1441 315077 315077 315077 315077
       1442 315078 315078 315078 315078
       1443 315089 315089 315089 315089
       1444 315092 315092 315092 315092
       1445 315095 315095 315095 315095
       1446 315099 315099 315099 315099
       1447 315100 315100 315100 315100
       1448 315113 315113 315113 315113
       1449 315115 315115 315115 315115
       1450 315116 315116 315116 315116
       1451 315117 315117 315117 315117
       1452 315128 315128 315128 315128
       1453 315131 315131 315131 315131
       1454 315134 315134 315134 315134
       1455 315138 315138 315138 315138
       1456 315139 315139 315139 315139
       1457 315152 315152 315152 315152
       1458 315154 315154 315154 315154
       1459 315155 315155 315155 315155
       1460 315156 315156 315156 315156
       1461 315167 315167 315167 315167
       1462 315170 315170 315170 315170
       1463 315173 315173 315173 315173
       1464 315177 315177 315177 315177
       1465 315193 315193 315193 315193
       1466 315195 315195 315195 315195
       1467 315196 315196 315196 315196
       1468 315197 315197 315197 315197
       1469 315208 315208 315208 315208
       1470 315211 315211 315211 315211
       1471 315214 315214 315214 315214
       1472 315218 315218 315218 315218
       1473 315231 315231 315231 315231
       1474 315233 315233 315233 315233
       1475 315234 315234 315234 315234
       1476 315235 315235 315235 315235
       1477 315246 315246 315246 315246
       1478 315249 315249 315249 315249
       1479 315252 315252 315252 315252
       1480 315256 315256 315256 315256
       1481 315270 315270 315270 315270
       1482 315272 315272 315272 315272
       1483 315273 315273 315273 315273
       1484 315274 315274 315274 315274
       1485 315285 315285 315285 315285
       1486 315288 315288 315288 315288
       1487 315291 315291 315291 315291
       1488 315295 315295 315295 315295
       1489 315302 315302 315302 315302
       1490 315304 315304 315304 315304
       1491 315313 315313 315313 315313
       1492 315315 315315 315315 315315
       1493 315316 315316 315316 315316
       1494 315317 315317 315317 315317
       1495 315328 315328 315328 315328
       1496 315331 315331 315331 315331
       1497 315334 315334 315334 315334
       1498 315338 315338 315338 315338
       1499 315345 315345 315345 315345
       1500 315352 315352 315352 315352
       1501 315354 315354 315354 315354
       1502 315355 315355 315355 315355
       1503 315356 315356 315356 315356
       1504 315367 315367 315367 315367
       1505 315370 315370 315370 315370
       1506 315373 315373 315373 315373
       1507 315377 315377 315377 315377
       1508 315394 315394 315394 315394
       1509 315396 315396 315396 315396
       1510 315397 315397 315397 315397
       1511 315408 315408 315408 315408
       1512 315411 315411 315411 315411
       1513 315414 315414 315414 315414
       1514 315418 315418 315418 315418
       1515 315431 315431 315431 315431
       1516 315433 315433 315433 315433
       1517 315434 315434 315434 315434
       1518 315435 315435 315435 315435
       1519 315446 315446 315446 315446
       1520 315449 315449 315449 315449
       1521 315452 315452 315452 315452
       1522 315456 315456 315456 315456
       1523 315461 315461 315461 315461
       1524 315470 315470 315470 315470
       1525 315472 315472 315472 315472
       1526 315473 315473 315473 315473
       1527 315474 315474 315474 315474
       1528 315484 315484 315484 315484
       1529 315487 315487 315487 315487
       1530 315490 315490 315490 315490
       1531 315494 315494 315494 315494
       1532 315499 315499 315499 315499
       1533 315502 315502 315502 315502
       1534 315509 315509 315509 315509
       1535 315511 315511 315511 315511
       1536 315512 315512 315512 315512
       1537 315523 315523 315523 315523
       1538 315526 315526 315526 315526
       1539 315529 315529 315529 315529
       1540 315533 315533 315533 315533
       1541 315538 315538 315538 315538
       1542 315543 315543 315543 315543
       1543 315547 315547 315547 315547
       1544 315548 315548 315548 315548
       1545 315550 315550 315550 315550
       1546 315564 315564 315564 315564
       1547 315567 315567 315567 315567
       1548 315571 315571 315571 315571
       1549 315576 315576 315576 315576
       1550 315580 315580 315580 315580
       1551 315585 315585 315585 315585
       1552 315588 315588 315588 315588
       1553 315594 315594 315594 315594
       1554 315603 315603 315603 315603
       1555 315606 315606 315606 315606
       1556 315610 315610 315610 315610
       1557 315615 315615 315615 315615
       1558 315619 315619 315619 315619
       1559 315624 315624 315624 315624
       1560 315625 315625 315625 315625
       1561 315627 315627 315627 315627
       1562 315642 315642 315642 315642
       1563 315645 315645 315645 315645
       1564 315649 315649 315649 315649
       1565 315654 315654 315654 315654
       1566 315657 315657 315657 315657
       1567 315661 315661 315661 315661
       1568 315665 315665 315665 315665
       1569 315666 315666 315666 315666
       1570 315681 315681 315681 315681
       1571 315684 315684 315684 315684
       1572 315688 315688 315688 315688
       1573 315693 315693 315693 315693
       1574 315697 315697 315697 315697
       1575 315701 315701 315701 315701
       1576 315702 315702 315702 315702
       1577 315704 315704 315704 315704
       1578 315716 315716 315716 315716
       1579 315719 315719 315719 315719
       1580 315722 315722 315722 315722
       1581 315726 315726 315726 315726
       1582 315731 315731 315731 315731
       1583 315736 315736 315736 315736
       1584 315739 315739 315739 315739
       1585 315742 315742 315742 315742
       1586 315744 315744 315744 315744
       1587 315745 315745 315745 315745
       1588 315757 315757 315757 315757
       1589 315760 315760 315760 315760
       1590 315763 315763 315763 315763
       1591 315767 315767 315767 315767
       1592 315772 315772 315772 315772
       1593 315775 315775 315775 315775
       1594 315778 315778 315778 315778
       1595 315779 315779 315779 315779
       1596 315782 315782 315782 315782
       1597 315783 315783 315783 315783
       1598 315785 315785 315785 315785
       1599 315797 315797 315797 315797
       1600 315800 315800 315800 315800
       1601 315803 315803 315803 315803
       1602 315807 315807 315807 315807
       1603 315812 315812 315812 315812
       1604 315816 315816 315816 315816
       1605 315819 315819 315819 315819
       1606 315821 315821 315821 315821
       1607 315824 315824 315824 315824
       1608 315826 315826 315826 315826
       1609 315827 315827 315827 315827
       1610 315839 315839 315839 315839
       1611 315842 315842 315842 315842
       1612 315845 315845 315845 315845
       1613 315849 315849 315849 315849
       1614 315854 315854 315854 315854
       1615 315857 315857 315857 315857
       1616 315859 315859 315859 315859
       1617 315861 315861 315861 315861
       1618 315863 315863 315863 315863
       1619 315866 315866 315866 315866
       1620 315868 315868 315868 315868
       1621 315869 315869 315869 315869
       1622 315881 315881 315881 315881
       1623 315884 315884 315884 315884
       1624 315887 315887 315887 315887
       1625 315891 315891 315891 315891
       1626 315896 315896 315896 315896
       1627 315898 315898 315898 315898
       1628 315900 315900 315900 315900
       1629 315901 315901 315901 315901
       1630 315903 315903 315903 315903
       1631 315906 315906 315906 315906
       1632 315908 315908 315908 315908
       1633 315909 315909 315909 315909
       1634 315921 315921 315921 315921
       1635 315924 315924 315924 315924
       1636 315927 315927 315927 315927
       1637 315931 315931 315931 315931
       1638 315936 315936 315936 315936
       1639 315939 315939 315939 315939
       1640 315942 315942 315942 315942
       1641 315946 315946 315946 315946
       1642 315947 315947 315947 315947
       1643 315948 315948 315948 315948
       1644 315952 315952 315952 315952
       1645 315954 315954 315954 315954
       1646 315955 315955 315955 315955
       1647 315967 315967 315967 315967
       1648 315970 315970 315970 315970
       1649 315973 315973 315973 315973
       1650 315977 315977 315977 315977
       1651 315982 315982 315982 315982
       1652 315986 315986 315986 315986
       1653 315987 315987 315987 315987
       1654 315989 315989 315989 315989
       1655 315992 315992 315992 315992
       1656 315995 315995 315995 315995
       1657 315997 315997 315997 315997
       1658 316006 316006 316006 316006
       1659 316009 316009 316009 316009
       1660 316012 316012 316012 316012
       1661 316016 316016 316016 316016
       1662 316021 316021 316021 316021
       1663 316023 316023 316023 316023
       1664 316025 316025 316025 316025
       1665 316027 316027 316027 316027
       1666 316028 316028 316028 316028
       1667 316031 316031 316031 316031
       1668 316033 316033 316033 316033
       1669 316034 316034 316034 316034
       1670 316045 316045 316045 316045
       1671 316048 316048 316048 316048
       1672 316051 316051 316051 316051
       1673 316055 316055 316055 316055
       1674 316060 316060 316060 316060
       1675 316065 316065 316065 316065
       1676 316066 316066 316066 316066
       1677 316068 316068 316068 316068
       1678 316071 316071 316071 316071
       1679 316073 316073 316073 316073
       1680 316074 316074 316074 316074
       1681 316086 316086 316086 316086
       1682 316089 316089 316089 316089
       1683 316092 316092 316092 316092
       1684 316096 316096 316096 316096
       1685 316101 316101 316101 316101
       1686 316104 316104 316104 316104
       1687 316106 316106 316106 316106
       1688 316108 316108 316108 316108
       1689 316110 316110 316110 316110
       1690 316111 316111 316111 316111
       1691 316123 316123 316123 316123
       1692 316125 316125 316125 316125
       1693 316128 316128 316128 316128
       1694 316132 316132 316132 316132
       1695 316137 316137 316137 316137
       1696 316143 316143 316143 316143
       1697 316146 316146 316146 316146
       1698 316148 316148 316148 316148
       1699 316149 316149 316149 316149
       1700 316161 316161 316161 316161
       1701 316164 316164 316164 316164
       1702 316167 316167 316167 316167
       1703 316171 316171 316171 316171
       1704 316176 316176 316176 316176
       1705 316182 316182 316182 316182
       1706 316185 316185 316185 316185
       1707 316187 316187 316187 316187
       1708 316188 316188 316188 316188
       1709 316200 316200 316200 316200
       1710 316203 316203 316203 316203
       1711 316206 316206 316206 316206
       1712 316210 316210 316210 316210
       1713 316215 316215 316215 316215
       1714 316218 316218 316218 316218
       1715 316219 316219 316219 316219
       1716 316222 316222 316222 316222
       1717 316224 316224 316224 316224
       1718 316226 316226 316226 316226
       1719 316227 316227 316227 316227
       1720 316238 316238 316238 316238
       1721 316240 316240 316240 316240
       1722 316243 316243 316243 316243
       1723 316247 316247 316247 316247
       1724 316252 316252 316252 316252
       1725 316255 316255 316255 316255
       1726 316256 316256 316256 316256
       1727 316259 316259 316259 316259
       1728 316261 316261 316261 316261
       1729 316262 316262 316262 316262
       1730 316274 316274 316274 316274
       1731 316277 316277 316277 316277
       1732 316280 316280 316280 316280
       1733 316284 316284 316284 316284
       1734 316289 316289 316289 316289
       1735 316292 316292 316292 316292
       1736 316294 316294 316294 316294
       1737 316296 316296 316296 316296
       1738 316298 316298 316298 316298
       1739 316299 316299 316299 316299
       1740 316311 316311 316311 316311
       1741 316314 316314 316314 316314
       1742 316317 316317 316317 316317
       1743 316321 316321 316321 316321
       1744 316326 316326 316326 316326
       1745 316328 316328 316328 316328
       1746 316334 316334 316334 316334
       1747 316336 316336 316336 316336
       1748 316338 316338 316338 316338
       1749 316339 316339 316339 316339
       1750 316351 316351 316351 316351
       1751 316354 316354 316354 316354
       1752 316357 316357 316357 316357
       1753 316361 316361 316361 316361
       1754 316366 316366 316366 316366
       1755 316370 316370 316370 316370
       1756 316373 316373 316373 316373
       1757 316375 316375 316375 316375
       1758 316376 316376 316376 316376
       1759 316388 316388 316388 316388
       1760 316391 316391 316391 316391
       1761 316394 316394 316394 316394
       1762 316398 316398 316398 316398
       1763 316403 316403 316403 316403
       1764 316409 316409 316409 316409
       1765 316412 316412 316412 316412
       1766 316414 316414 316414 316414
       1767 316415 316415 316415 316415
       1768 316427 316427 316427 316427
       1769 316430 316430 316430 316430
       1770 316433 316433 316433 316433
       1771 316437 316437 316437 316437
       1772 316442 316442 316442 316442
       1773 316445 316445 316445 316445
       1774 316447 316447 316447 316447
       1775 316450 316450 316450 316450
       1776 316452 316452 316452 316452
       1777 316453 316453 316453 316453
       1778 316465 316465 316465 316465
       1779 316468 316468 316468 316468
       1780 316471 316471 316471 316471
       1781 316475 316475 316475 316475
       1782 316480 316480 316480 316480
       1783 316484 316484 316484 316484
       1784 316486 316486 316486 316486
       1785 316489 316489 316489 316489
       1786 316491 316491 316491 316491
       1787 316492 316492 316492 316492
       1788 316503 316503 316503 316503
       1789 316506 316506 316506 316506
       1790 316509 316509 316509 316509
       1791 316513 316513 316513 316513
       1792 316518 316518 316518 316518
       1793 316521 316521 316521 316521
       1794 316524 316524 316524 316524
       1795 316526 316526 316526 316526
       1796 316527 316527 316527 316527
       1797 316539 316539 316539 316539
       1798 316542 316542 316542 316542
       1799 316545 316545 316545 316545
       1800 316549 316549 316549 316549
       1801 316554 316554 316554 316554
       1802 316556 316556 316556 316556
       1803 316562 316562 316562 316562
       1804 316565 316565 316565 316565
       1805 316566 316566 316566 316566
       1806 316567 316567 316567 316567
       1807 316579 316579 316579 316579
       1808 316582 316582 316582 316582
       1809 316585 316585 316585 316585
       1810 316589 316589 316589 316589
       1811 316594 316594 316594 316594
       1812 316599 316599 316599 316599
       1813 316602 316602 316602 316602
       1814 316604 316604 316604 316604
       1815 316605 316605 316605 316605
       1816 316617 316617 316617 316617
       1817 316620 316620 316620 316620
       1818 316623 316623 316623 316623
       1819 316627 316627 316627 316627
       1820 316632 316632 316632 316632
       1821 316635 316635 316635 316635
       1822 316642 316642 316642 316642
       1823 316644 316644 316644 316644
       1824 316654 316654 316654 316654
       1825 316657 316657 316657 316657
       1826 316660 316660 316660 316660
       1827 316664 316664 316664 316664
       1828 316669 316669 316669 316669
       1829 316676 316676 316676 316676
       1830 316679 316679 316679 316679
       1831 316681 316681 316681 316681
       1832 316682 316682 316682 316682
       1833 316693 316693 316693 316693
       1834 316696 316696 316696 316696
       1835 316699 316699 316699 316699
       1836 316703 316703 316703 316703
       1837 316708 316708 316708 316708
       1838 316710 316710 316710 316710
       1839 316713 316713 316713 316713
       1840 316716 316716 316716 316716
       1841 316718 316718 316718 316718
       1842 316719 316719 316719 316719
       1843 316731 316731 316731 316731
       1844 316734 316734 316734 316734
       1845 316737 316737 316737 316737
       1846 316741 316741 316741 316741
       1847 316746 316746 316746 316746
       1848 316748 316748 316748 316748
       1849 316752 316752 316752 316752
       1850 316754 316754 316754 316754
       1851 316756 316756 316756 316756
       1852 316757 316757 316757 316757
       1853 316769 316769 316769 316769
       1854 316772 316772 316772 316772
       1855 316775 316775 316775 316775
       1856 316779 316779 316779 316779
       1857 316784 316784 316784 316784
       1858 316786 316786 316786 316786
       1859 316792 316792 316792 316792
       1860 316795 316795 316795 316795
       1861 316797 316797 316797 316797
       1862 316798 316798 316798 316798
       1863 316809 316809 316809 316809
       1864 316812 316812 316812 316812
       1865 316815 316815 316815 316815
       1866 316819 316819 316819 316819
       1867 316824 316824 316824 316824
       1868 316828 316828 316828 316828
       1869 316831 316831 316831 316831
       1870 316833 316833 316833 316833
       1871 316834 316834 316834 316834
       1872 316846 316846 316846 316846
       1873 316849 316849 316849 316849
       1874 316852 316852 316852 316852
       1875 316856 316856 316856 316856
       1876 316861 316861 316861 316861
       1877 316866 316866 316866 316866
[...]
     number of failed solid  elements = 81
     number of failed beam   elements = 0
     number of failed shell  elements = 0
     number of failed tshell elements = 0
 Element deleted due to damage
     solid element 34894  failed at time  3.7928E-05
 f a i l e d   e l e m e n t   r e p o r t  time=  3.7928E-05
     number of failed solid  elements = 82
     number of failed beam   elements = 0
     number of failed shell  elements = 0
     number of failed tshell elements = 0
 f a i l e d   e l e m e n t   r e p o r t  time=  3.7994E-05
     number of failed solid  elements = 82
     number of failed beam   elements = 0
     number of failed shell  elements = 0
     number of failed tshell elements = 0
 Element deleted due to damage
     solid element 31863  failed at time  3.8088E-05
 f a i l e d   e l e m e n t   r e p o r t  time=  3.8088E-05
     number of failed solid  elements = 83
     number of failed beam   elements = 0
     number of failed shell  elements = 0
     number of failed tshell elements = 0
 Element deleted due to damage
     solid element 35888  failed at time  3.8293E-05
 f a i l e d   e l e m e n t   r e p o r t  time=  3.8293E-05
     number of failed solid  elements = 84
     number of failed beam   elements = 0
     number of failed shell  elements = 0
     number of failed tshell elements = 0
 f a i l e d   e l e m e n t   r e p o r t  time=  3.8328E-05
     number of failed solid  elements = 84
     number of failed beam   elements = 0
     number of failed shell  elements = 0
     number of failed tshell elements = 0
 f a i l e d   e l e m e n t   r e p o r t  time=  3.8382E-05
     number of failed solid  elements = 84
     number of failed beam   elements = 0
     number of failed shell  elements = 0
     number of failed tshell elements = 0
 Element deleted due to damage
     solid element 30952  failed at time  3.8735E-05
 f a i l e d   e l e m e n t   r e p o r t  time=  3.8735E-05
     number of failed solid  elements = 85
     number of failed beam   elements = 0
     number of failed shell  elements = 0
     number of failed tshell elements = 0
 f a i l e d   e l e m e n t   r e p o r t  time=  3.8954E-05
     number of failed solid  elements = 85
     number of failed beam   elements = 0
     number of failed shell  elements = 0
     number of failed tshell elements = 0
 f a i l e d   e l e m e n t   r e p o r t  time=  3.8963E-05
     number of failed solid  elements = 85
     number of failed beam   elements = 0
     number of failed shell  elements = 0
     number of failed tshell elements = 0
 Element deleted due to damage
     solid element 38869  failed at time  3.9024E-05
 f a i l e d   e l e m e n t   r e p o r t  time=  3.9024E-05
     number of failed solid  elements = 86
     number of failed beam   elements = 0
     number of failed shell  elements = 0
     number of failed tshell elements = 0
 f a i l e d   e l e m e n t   r e p o r t  time=  3.9299E-05
     number of failed solid  elements = 86
     number of failed beam   elements = 0
     number of failed shell  elements = 0
     number of failed tshell elements = 0
 f a i l e d   e l e m e n t   r e p o r t  time=  3.9334E-05
     number of failed solid  elements = 86
     number of failed beam   elements = 0
     number of failed shell  elements = 0
     number of failed tshell elements = 0
 Element deleted due to damage
     solid element 31305  failed at time  3.9467E-05
 f a i l e d   e l e m e n t   r e p o r t  time=  3.9467E-05
     number of failed solid  elements = 87
     number of failed beam   elements = 0
     number of failed shell  elements = 0
     number of failed tshell elements = 0
 f a i l e d   e l e m e n t   r e p o r t  time=  3.9554E-05
     number of failed solid  elements = 87
     number of failed beam   elements = 0
     number of failed shell  elements = 0
     number of failed tshell elements = 0
 f a i l e d   e l e m e n t   r e p o r t  time=  3.9583E-05
     number of failed solid  elements = 87
     number of failed beam   elements = 0
     number of failed shell  elements = 0
     number of failed tshell elements = 0
 f a i l e d   e l e m e n t   r e p o r t  time=  3.9692E-05
     number of failed solid  elements = 87
     number of failed beam   elements = 0
     number of failed shell  elements = 0
     number of failed tshell elements = 0
 Element deleted due to damage
     solid element 33979  failed at time  3.9991E-05
 f a i l e d   e l e m e n t   r e p o r t  time=  3.9991E-05
     number of failed solid  elements = 88
     number of failed beam   elements = 0
     number of failed shell  elements = 0
     number of failed tshell elements = 0
 Element deleted due to damage
      node  number 301635 deleted at time  4.0027E-05
      node  number 18900 deleted at time  4.0027E-05
     solid element 34020  failed at time  4.0027E-05
 f a i l e d   e l e m e n t   r e p o r t  time=  4.0027E-05
     number of failed solid  elements = 89
     number of failed beam   elements = 0
     number of failed shell  elements = 0
     number of failed tshell elements = 0
 f a i l e d   e l e m e n t   r e p o r t  time=  4.0289E-05
     number of failed solid  elements = 89
     number of failed beam   elements = 0
     number of failed shell  elements = 0
     number of failed tshell elements = 0
 Element deleted due to damage
     solid element 31075  failed at time  4.0515E-05
 f a i l e d   e l e m e n t   r e p o r t  time=  4.0515E-05
     number of failed solid  elements = 90
     number of failed beam   elements = 0
     number of failed shell  elements = 0
     number of failed tshell elements = 0
 f a i l e d   e l e m e n t   r e p o r t  time=  4.0546E-05
     number of failed solid  elements = 90
     number of failed beam   elements = 0
     number of failed shell  elements = 0
     number of failed tshell elements = 0
 f a i l e d   e l e m e n t   r e p o r t  time=  4.0611E-05
     number of failed solid  elements = 90
     number of failed beam   elements = 0
     number of failed shell  elements = 0
     number of failed tshell elements = 0
 f a i l e d   e l e m e n t   r e p o r t  time=  4.0821E-05
     number of failed solid  elements = 90
     number of failed beam   elements = 0
     number of failed shell  elements = 0
     number of failed tshell elements = 0
 Element deleted due to damage
     solid element 32326  failed at time  4.1020E-05
 f a i l e d   e l e m e n t   r e p o r t  time=  4.1020E-05
     number of failed solid  elements = 91
     number of failed beam   elements = 0
     number of failed shell  elements = 0
     number of failed tshell elements = 0
 Element deleted due to damage
     solid element 38592  failed at time  4.1025E-05
 f a i l e d   e l e m e n t   r e p o r t  time=  4.1025E-05
     number of failed solid  elements = 92
     number of failed beam   elements = 0
     number of failed shell  elements = 0
     number of failed tshell elements = 0
 f a i l e d   e l e m e n t   r e p o r t  time=  4.1037E-05
     number of failed solid  elements = 92
     number of failed beam   elements = 0
     number of failed shell  elements = 0
     number of failed tshell elements = 0
 f a i l e d   e l e m e n t   r e p o r t  time=  4.1175E-05
     number of failed solid  elements = 92
     number of failed beam   elements = 0
     number of failed shell  elements = 0
     number of failed tshell elements = 0
 f a i l e d   e l e m e n t   r e p o r t  time=  4.1253E-05
     number of failed solid  elements = 92
     number of failed beam   elements = 0
     number of failed shell  elements = 0
     number of failed tshell elements = 0
 Element deleted due to damage
      node  number 301634 deleted at time  4.1304E-05
      node  number 18850 deleted at time  4.1304E-05
     solid element 33938  failed at time  4.1304E-05
 f a i l e d   e l e m e n t   r e p o r t  time=  4.1304E-05
     number of failed solid  elements = 93
     number of failed beam   elements = 0
     number of failed shell  elements = 0
     number of failed tshell elements = 0
 f a i l e d   e l e m e n t   r e p o r t  time=  4.1850E-05
     number of failed solid  elements = 93
     number of failed beam   elements = 0
     number of failed shell  elements = 0
     number of failed tshell elements = 0
 Element deleted due to damage
      node  number 301724 deleted at time  4.1923E-05
      node  number 22443 deleted at time  4.1923E-05
     solid element 37449  failed at time  4.1923E-05
 f a i l e d   e l e m e n t   r e p o r t  time=  4.1923E-05
     number of failed solid  elements = 94
     number of failed beam   elements = 0
     number of failed shell  elements = 0
     number of failed tshell elements = 0
 f a i l e d   e l e m e n t   r e p o r t  time=  4.1966E-05
     number of failed solid  elements = 94
     number of failed beam   elements = 0
     number of failed shell  elements = 0
     number of failed tshell elements = 0
 Element deleted due to damage
      node  number 301633 deleted at time  4.2354E-05
      node  number 18806 deleted at time  4.2354E-05
     solid element 33900  failed at time  4.2354E-05
 f a i l e d   e l e m e n t   r e p o r t  time=  4.2354E-05
     number of failed solid  elements = 95
     number of failed beam   elements = 0
     number of failed shell  elements = 0
     number of failed tshell elements = 0
 f a i l e d   e l e m e n t   r e p o r t  time=  4.2661E-05
     number of failed solid  elements = 95
     number of failed beam   elements = 0
     number of failed shell  elements = 0
     number of failed tshell elements = 0
 f a i l e d   e l e m e n t   r e p o r t  time=  4.2746E-05
     number of failed solid  elements = 95
     number of failed beam   elements = 0
     number of failed shell  elements = 0
     number of failed tshell elements = 0
 Element deleted due to damage
     solid element 32498  failed at time  4.4372E-05
 f a i l e d   e l e m e n t   r e p o r t  time=  4.4372E-05
     number of failed solid  elements = 96
     number of failed beam   elements = 0
     number of failed shell  elements = 0
     number of failed tshell elements = 0
 f a i l e d   e l e m e n t   r e p o r t  time=  4.8355E-05
     number of failed solid  elements = 96
     number of failed beam   elements = 0
     number of failed shell  elements = 0
     number of failed tshell elements = 0
 Element deleted due to damage
     solid element 36173  failed at time  4.8458E-05
 f a i l e d   e l e m e n t   r e p o r t  time=  4.8458E-05
     number of failed solid  elements = 97
     number of failed beam   elements = 0
     number of failed shell  elements = 0
     number of failed tshell elements = 0
 f a i l e d   e l e m e n t   r e p o r t  time=  4.8585E-05
     number of failed solid  elements = 97
     number of failed beam   elements = 0
     number of failed shell  elements = 0
     number of failed tshell elements = 0
 Element deleted due to damage
     solid element 36752  failed at time  4.9686E-05
 f a i l e d   e l e m e n t   r e p o r t  time=  4.9686E-05
     number of failed solid  elements = 98
     number of failed beam   elements = 0
     number of failed shell  elements = 0
     number of failed tshell elements = 0
 Element deleted due to damage
     solid element 37396  failed at time  5.0847E-05
 f a i l e d   e l e m e n t   r e p o r t  time=  5.0847E-05
     number of failed solid  elements = 99
     number of failed beam   elements = 0
     number of failed shell  elements = 0
     number of failed tshell elements = 0
 f a i l e d   e l e m e n t   r e p o r t  time=  5.3193E-05
     number of failed solid  elements = 99
     number of failed beam   elements = 0
     number of failed shell  elements = 0
     number of failed tshell elements = 0
 Element deleted due to damage
     solid element 39209  failed at time  5.3553E-05
 f a i l e d   e l e m e n t   r e p o r t  time=  5.3553E-05
     number of failed solid  elements = 100
     number of failed beam   elements = 0
     number of failed shell  elements = 0
     number of failed tshell elements = 0
 f a i l e d   e l e m e n t   r e p o r t  time=  5.3681E-05
     number of failed solid  elements = 100
     number of failed beam   elements = 0
     number of failed shell  elements = 0
     number of failed tshell elements = 0
 f a i l e d   e l e m e n t   r e p o r t  time=  5.4374E-05
     number of failed solid  elements = 100
     number of failed beam   elements = 0
     number of failed shell  elements = 0
     number of failed tshell elements = 0
 f a i l e d   e l e m e n t   r e p o r t  time=  5.5685E-05
     number of failed solid  elements = 100
     number of failed beam   elements = 0
     number of failed shell  elements = 0
     number of failed tshell elements = 0
 Element deleted due to damage
     solid element 32007  failed at time  5.8430E-05
 f a i l e d   e l e m e n t   r e p o r t  time=  5.8430E-05
     number of failed solid  elements = 101
     number of failed beam   elements = 0
     number of failed shell  elements = 0
     number of failed tshell elements = 0

 S t o r a g e   a l l o c a t i o n   

 Memory required to complete solution   :     277K
 Additional dynamically allocated memory:      30M
                                   Total:      30M


 P r o c e s s o r   #         1

 T i m i n g   i n f o r m a t i o n
                        CPU(seconds)   %CPU  Clock(seconds) %Clock
  ----------------------------------------------------------------
  Keyword Processing ... 3.0774E-01    0.10     3.0900E-01    0.10
  MPP Decomposition .... 6.4535E-01    0.22     7.0012E-01    0.23
    Init Proc .......... 4.8076E-01    0.16     4.8257E-01    0.16
    Decomposition ...... 6.4066E-02    0.02     6.4331E-02    0.02
    Translation ........ 1.0045E-01    0.03     1.5314E-01    0.05
  Initialization ....... 1.5678E-01    0.05     1.6696E-01    0.06
    Init Proc Phase 1 .. 1.0691E-01    0.04     1.1178E-01    0.04
    Init Proc Phase 2 .. 1.4345E-02    0.00     1.5011E-02    0.00
  Element processing ... 1.7670E+02   59.10     1.7763E+02   59.07
    Solids ............. 1.7059E+02   57.06     1.7148E+02   57.02
    E Other ............ 1.1592E-01    0.04     1.1875E-01    0.04
  Binary databases ..... 4.9138E-01    0.16     4.9494E-01    0.16
  ASCII database ....... 2.0378E+00    0.68     2.0524E+00    0.68
  Contact algorithm .... 6.4834E+01   21.69     6.5173E+01   21.67
    Interf. ID         3 1.6136E+01    5.40     1.6217E+01    5.39
    Interf. ID         2 4.3129E+01   14.43     4.3358E+01   14.42
  Rigid Bodies ......... 1.9030E-01    0.06     1.8992E-01    0.06
  DEM .................. 1.0161E+01    3.40     1.0210E+01    3.40
    DEM self contact ... 9.4685E+00    3.17     9.5167E+00    3.16
  Time step size ....... 2.8611E+00    0.96     2.8724E+00    0.96
  Group force file ..... 5.0331E-02    0.02     5.8756E-02    0.02
  Others ............... 2.7677E+00    0.93     2.8490E+00    0.95
    Force Sharing ...... 2.3364E+00    0.78     2.3416E+00    0.78
  Misc. 1 .............. 2.3282E+01    7.79     2.3408E+01    7.78
    Scale Masses ....... 1.9009E-02    0.01     1.7907E-02    0.01
    Force Constraints .. 3.0484E-02    0.01     3.1981E-02    0.01
    Force to Accel ..... 2.2522E+00    0.75     2.2586E+00    0.75
    Constraint Sharing . 3.0884E-02    0.01     3.1137E-02    0.01
    Update RB nodes .... 4.7452E-02    0.02     4.8584E-02    0.02
  Misc. 2 .............. 5.6462E+00    1.89     5.6685E+00    1.89
  Misc. 3 .............. 7.3447E+00    2.46     7.4141E+00    2.47
  Misc. 4 .............. 1.5012E+00    0.50     1.5097E+00    0.50
    Timestep Init ...... 1.1798E+00    0.39     1.1805E+00    0.39
    Apply Loads ........ 2.5368E-01    0.08     2.5993E-01    0.09
  ----------------------------------------------------------------
  T o t a l s            2.9897E+02  100.00     3.0071E+02  100.00


 A v e r a g e s

 T i m i n g   i n f o r m a t i o n
                        CPU(seconds)   %CPU  Clock(seconds) %Clock
  ----------------------------------------------------------------
  Keyword Processing ... 2.8479E-01    0.10     3.0870E-01    0.10
    KW Reading ......... 1.9721E-02    0.01     2.0043E-02    0.01
    KW Writing ......... 1.1432E-02    0.00     1.9405E-02    0.01
  MPP Decomposition .... 5.9333E-01    0.20     7.0052E-01    0.23
    Init Proc .......... 4.3903E-01    0.15     4.8255E-01    0.16
    Decomposition ...... 5.2936E-02    0.02     6.4324E-02    0.02
    Translation ........ 1.0128E-01    0.03     1.5355E-01    0.05
  Initialization ....... 1.5139E-01    0.05     1.6646E-01    0.06
    Init Proc Phase 1 .. 1.0687E-01    0.04     1.1183E-01    0.04
    Init Proc Phase 2 .. 1.3947E-02    0.00     1.5019E-02    0.00
  Element processing ... 1.3316E+02   44.75     1.3388E+02   44.52
    Solids ............. 1.2782E+02   42.96     1.2850E+02   42.73
    E Other ............ 1.3692E-01    0.05     1.3893E-01    0.05
  Binary databases ..... 4.9681E-01    0.17     5.0379E-01    0.17
  ASCII database ....... 2.3227E+00    0.78     3.7271E+00    1.24
  Contact algorithm .... 6.5189E+01   21.91     6.5519E+01   21.79
    Interf. ID         3 1.6393E+01    5.51     1.6472E+01    5.48
    Interf. ID         2 4.1712E+01   14.02     4.1927E+01   13.94
  Rigid Bodies ......... 2.4383E-01    0.08     2.4427E-01    0.08
  DEM .................. 1.0697E+01    3.60     1.0746E+01    3.57
    DEM self contact ... 1.0037E+01    3.37     1.0086E+01    3.35
  Time step size ....... 4.6486E+01   15.62     4.6684E+01   15.52
  Group force file ..... 5.6227E-02    0.02     6.6425E-02    0.02
  Others ............... 2.9405E+00    0.99     3.0199E+00    1.00
    Force Sharing ...... 2.4897E+00    0.84     2.4972E+00    0.83
  Misc. 1 .............. 2.2101E+01    7.43     2.2225E+01    7.39
    Scale Masses ....... 2.1911E-02    0.01     2.1731E-02    0.01
    Force Constraints .. 3.6577E-02    0.01     3.7244E-02    0.01
    Force to Accel ..... 2.2080E+00    0.74     2.2129E+00    0.74
    Constraint Sharing . 3.9183E-02    0.01     3.9466E-02    0.01
    Update RB nodes .... 4.8398E-02    0.02     4.9943E-02    0.02
  Misc. 2 .............. 5.3143E+00    1.79     5.3320E+00    1.77
  Misc. 3 .............. 6.1026E+00    2.05     6.1662E+00    2.05
  Misc. 4 .............. 1.4151E+00    0.48     1.4228E+00    0.47
    Timestep Init ...... 1.0894E+00    0.37     1.0884E+00    0.36
    Apply Loads ........ 2.5924E-01    0.09     2.6654E-01    0.09
  ----------------------------------------------------------------
  T o t a l s            2.9756E+02  100.00     3.0071E+02  100.00

 Problem time       =    6.0001E-05
 Problem cycle      =     55592
 Total CPU time     =       298 seconds (   0 hours  4 minutes 58 seconds)
 CPU time per zone cycle  =        460.820 nanoseconds
 Clock time per zone cycle=        465.616 nanoseconds

 Parallel execution with      4 MPP proc
 NLQ used/max                64/    64

  C P U   T i m i n g   i n f o r m a t i o n

  Processor   Hostname                              CPU/Avg_CPU  CPU(seconds)
  ---------------------------------------------------------------------------
  #       0   compute-0-0                               0.98487   2.9311E+02
  #       1   compute-0-0                               1.00473   2.9902E+02
  #       2   compute-0-0                               1.00510   2.9913E+02
  #       3   compute-0-0                               1.00530   2.9919E+02
  ---------------------------------------------------------------------------
  T o t a l s                                                     1.1905E+03


 Start time   04/08/2022 12:49:31  
 End time     04/08/2022 12:54:31  
 Elapsed time     300 seconds for   55592 cycles using     4 MPP procs
             (      0 hour   5 minutes  0 second )

 N o r m a l    t e r m i n a t i o n                          04/08/22 12:54:31
