$# LS-DYNA Keyword file created by LS-PrePost(R) V4.8.25 - 04Jan2022
$# Created on Apr-4-2022 (10:46:53)
*KEYWORD
*TITLE
$#                                                                         title
LS-DYNA keyword deck by LS-PrePost
*CONTROL_ACCURACY
$#     osu       inn    pidosu      iacc    
         1         4         0         0
*CONTROL_BULK_VISCOSITY
$#      q1        q2      type     btype    tstype      
       1.5      0.06        -2         0         0
*CONTROL_CONTACT
$#  slsfac    rwpnal    islchk    shlthk    penopt    thkchg     orien    enmass
       0.2       0.0         1         0         1         0         1         0
$#  usrstr    usrfrc     nsbcs    interm     xpene     ssthk      ecdt   tiedprj
         0         0         0         0       4.0         0         0         0
$#   sfric     dfric       edc       vfc        th     th_sf    pen_sf      
       0.0       0.0       0.0       0.0       0.0       0.0       0.0
$#  ignore    frceng   skiprwg    outseg   spotstp   spotdel   spothin       
         2         1         0         0         0         0       0.0
$#    isym    nserod    rwgaps    rwgdth     rwksf      icov    swradf    ithoff
         0         0         1       0.0       1.0         0       0.0         0
$#  shledg    pstiff    ithcnt    tdcnof     ftall    unused    shltrw    igactc
         0         0         0         0         0                 0.0         0
*CONTROL_DISCRETE_ELEMENT
$#   ndamp     tdamp     frics     fricr     normk    sheark       cap       vtk
       0.0       0.0       0.0       0.0      0.01       0.0         0         0
$#   gamma       vol       ang       gap    unused    ignore      nbuf  parallel

$#   lnorm    lshear    unused     fricd        dc      ncrb        bt        dt
         0         0                 0.0       0.0         0       0.01.00000E20
$#      cp        tc      tfac    
       0.0       0.0       0.0
$# idesoft    sofscl    unused     iskip     
         0       0.1                  20
*CONTROL_ENERGY
$#    hgen      rwen    slnten     rylen     irgen     
         2         1         2         2         1
*CONTROL_HOURGLASS
$#     ihq        qh  
         3       0.1
*CONTROL_OUTPUT
$#   npopt    neecho    nrefup    iaccop     opifs    ipnint    ikedit    iflush
         0         0         0         0       0.0         0       100      5000
$#   iprtf    ierode   tet10s8    msgmax    ipcurv      gmdt   ip1dblt      eocs
         0         1         2        50         0       0.0         0         0
$#   tolev    newleg    frfreq     minfo    solsig    msgflg    cdetol      
         2         0         1         0         0         0      10.0
$# phschng    demden   icrfile   spc2bnd    penout    shlsig   hisnout    engout
         0         0         0         0         0         0         0         0
$#    insf    isolsf      ibsf      issf    mlkbag      
         0         0         0         0         0
*CONTROL_SOLID
$#   esort   fmatrix   niptets    swlocl    psfail   t10jtol    icohed    tet13k
         1         0         4         1         0       0.0         0         0
$#   pm1     pm2     pm3     pm4     pm5     pm6     pm7     pm8     pm9    pm10
       0       0       0       0       0       0       0       0       0       0
*CONTROL_SOLUTION
$#    soln       nlq     isnan     lcint     lcacc     ncdcf     nocop     
         0         0         0       400         1         1         0
*CONTROL_TERMINATION
$#  endtim    endcyc     dtmin    endeng    endmas     nosol     
2.20000E-5         0       0.0       0.01.000000E8         0
*CONTROL_TIMESTEP
$#  dtinit    tssfac      isdo    tslimt     dt2ms      lctm     erode     ms1st
       0.0       0.1         0       0.0       0.0         0         0         0
$#  dt2msf   dt2mslc     imscl    unused    unused     rmscl    unused      ihdo
       0.0         0         0                           0.0                   0
*DATABASE_GLSTAT
$#      dt    binary      lcur     ioopt     
1.00000E-8         3         0         1
*DATABASE_GLSTAT_MASS_PROPERTIES
$#      dt    binary      lcur     ioopt     
1.00000E-8         3         0         1
*DATABASE_MATSUM
$#      dt    binary      lcur     ioopt     
1.00000E-8         3         0         1
*DATABASE_SLEOUT
$#      dt    binary      lcur     ioopt     
1.00000E-8         3         0         1
*DATABASE_BINARY_D3PLOT
$#      dt      lcdt      beam     npltc    psetid      
       0.0         0         0        30         0
$#   ioopt      rate    cutoff    window      type      pset    
         0       0.0       0.0       0.0         0         0
*DATABASE_EXTENT_BINARY
$#   neiph     neips    maxint    strflg    sigflg    epsflg    rltflg    engflg
        20        20         3         0         1         1         1         1
$#  cmpflg    ieverp    beamip     dcomp      shge     stssz    n3thdt   ialemat
         0         0         0         1         1         1         2         1
$# nintsld   pkp_sen      sclp     hydro     msscl     therm    intout    nodout
         0         0       1.0         2         0         0                    
$#    dtdt    resplt     neipb     quadr     cubic     
         0         0         0         0         0
*CONTACT_ERODING_NODES_TO_SURFACE_ID
$#     cid                                                                 title
         3                                                                      
$#    ssid      msid     sstyp     mstyp    sboxid    mboxid       spr       mpr
        50        12         4         2         0         0         0         0
$#      fs        fd        dc        vc       vdc    penchk        bt        dt
      0.01      0.01       0.0       0.0       5.0         0       0.01.00000E20
$#     sfs       sfm       sst       mst      sfst      sfmt       fsf       vsf
       1.0       1.0       0.0       0.0       1.0       1.0       1.0       1.0
$#    isym    erosop      iadj    
         1         1         1
$#    soft    sofscl    lcidab    maxpar     sbopt     depth     bsort    frcfrq
         1       0.1         0     1.025       2.0         2         1         1
*SET_NODE_GENERAL_TITLE
Particles
$#     sid       da1       da2       da3       da4    solver      
        50       0.0       0.0       0.0       0.0MECH
$#  option        e1        e2        e3        e4        e5        e6        e7
PART              10        20        30         0         0         0         0
*SET_PART_LIST_TITLE
Parts
$#     sid       da1       da2       da3       da4    solver      
        12       0.0       0.0       0.0       0.0MECH
$#    pid1      pid2      pid3      pid4      pid5      pid6      pid7      pid8
         1         2         3         0         0         0         0         0
*CONTACT_ERODING_SINGLE_SURFACE
$#     cid                                                                 title
$#    ssid      msid     sstyp     mstyp    sboxid    mboxid       spr       mpr
         0         0         5         0         0         0         0         2
$#      fs        fd        dc        vc       vdc    penchk        bt        dt
      0.01      0.01       0.0       0.0       5.0         0       0.01.00000E20
$#     sfs       sfm       sst       mst      sfst      sfmt       fsf       vsf
       1.0       1.0       0.0       0.0       1.0       1.0       1.0       1.0
$#    isym    erosop      iadj    
         1         1         1
$#    soft    sofscl    lcidab    maxpar     sbopt     depth     bsort    frcfrq
         2       0.1         0     1.025       5.0        35         1         1
*PART
$#                                                                         title
Particle Target
$#     pid     secid       mid     eosid      hgid      grav    adpopt      tmid
        10         1         2         2         0         0         0         0
*SECTION_SOLID_TITLE
Target and particles
$#   secid    elform       aet    unused    unused    unused    cohoff    unused
         1         1         0                                       0          
*MAT_USER_DEFINED_MATERIAL_MODELS_TITLE
AA6070-O
$#     mid        ro        mt       lmc       nhv    iortho     ibulk        ig
         22.70000E-9        47        48        20         0         1         2
$#   ivect     ifail    itherm    ihyper      ieos      lmca    unused    unused
         1         1         0         0         1         0                    
$        k         g         e        pr      beta       xsi    cp*rho     alpha
$#      p1        p2        p3        p4        p5        p6        p7        p8
  58333.33  26923.08   70000.0       0.3       0.0       0.9     2.4572.32000E-5
$    e0dot        tr        tm        t0
$#      p1        p2        p3        p4        p5        p6        p7        p8
1.00000E-4     293.0     893.0     293.0         0       0.0       0.0       0.0
$        a         b         n         c         m
$#      p1        p2        p3        p4        p5        p6        p7        p8
      38.8      3.63     0.213     0.142       1.0         0       0.0       0.0
$       q1        c1        q2        c2
$#      p1        p2        p3        p4        p5        p6        p7        p8
      79.5      56.9      88.2       4.0         0       0.0       0.0       0.0
$       dc        wc
$#      p1        p2        p3        p4        p5        p6        p7        p8
       1.0       151         0       0.0       0.0       0.0       0.0       0.0
$       tc      tauc       pco
$#      p1        p2        p3        p4        p5        p6        p7        p8
     804.01.00000E20     -1000         0       0.0       0.0       0.0       0.0
*EOS_LINEAR_POLYNOMIAL_TITLE
Linear
$#   eosid        c0        c1        c2        c3        c4        c5        c6
         2       0.0  58333.33       0.0       0.0       0.0       0.0       0.0
$#      e0        v0  
       0.0       1.0
*PART
$#                                                                         title
Particle Ball
$#     pid     secid       mid     eosid      hgid      grav    adpopt      tmid
        20         1         1         2         0         0         0         0
*MAT_USER_DEFINED_MATERIAL_MODELS_TITLE
Aluminium
$#     mid        ro        mt       lmc       nhv    iortho     ibulk        ig
         12.70000E-9        47        48        20         0         1         2
$#   ivect     ifail    itherm    ihyper      ieos      lmca    unused    unused
         1         1         0         0         1         0                    
$        k         g         e        pr      beta       xsi    cp*rho     alpha
$#      p1        p2        p3        p4        p5        p6        p7        p8
  58333.33  26923.08   70000.0       0.3       0.0       0.9     2.4572.32000E-5
$    e0dot        tr        tm        t0
$#      p1        p2        p3        p4        p5        p6        p7        p8
1.00000E-4     293.0     893.0     293.0         0       0.0       0.0       0.0
$        a         b         n         c         m
$#      p1        p2        p3        p4        p5        p6        p7        p8
     292.6       0.0       0.0      0.02       1.0         0       0.0       0.0
$       q1        c1        q2        c2
$#      p1        p2        p3        p4        p5        p6        p7        p8
       2.7    2160.7     707.6      8.94         0       0.0       0.0       0.0
$       dc        wc
$#      p1        p2        p3        p4        p5        p6        p7        p8
       1.0     278.0         0       0.0       0.0       0.0       0.0       0.0
$       tc      tauc       pco
$#      p1        p2        p3        p4        p5        p6        p7        p8
     804.01.00000E20     -1000         0       0.0       0.0       0.0       0.0
*PART
$#                                                                         title
front plate particles
$#     pid     secid       mid     eosid      hgid      grav    adpopt      tmid
        30         1         2         2         0         0         0         0
*DEFINE_ADAPTIVE_SOLID_TO_DES_ID
$#     did                                                               heading
         1                                                                      
$#    ipid     itype        nq     ipdes     isdes       rsf    outdes     ibond
         3         0         1        30         1       1.0         0         0
*DEFINE_ADAPTIVE_SOLID_TO_DES_ID
         2                                                                      
         2         0         1        20         2       1.0         0         0
*NODE
$#   nid               x               y               z      tc      rc  
       1             0.0           -20.0             0.0       0       0
       2            0.33           -20.0             0.0       0       0
       3            0.66           -20.0             0.0       0       0
       4       0.9899999           -20.0             0.0       0       0
       5            1.32           -20.0             0.0       0       0
       6            1.65           -20.0             0.0       0       0
       7            1.98           -20.0             0.0       0       0
       8            2.31           -20.0             0.0       0       0
       9            2.64           -20.0             0.0       0       0
      10            2.97           -20.0             0.0       0       0
      11             3.3           -20.0             0.0       0       0
      12             0.0       -19.73333             0.0       0       0
      13            0.33       -19.73333             0.0       0       0
      14            0.66       -19.73333             0.0       0       0
      15       0.9899999       -19.73333             0.0       0       0
      16            1.32       -19.73333             0.0       0       0
      17            1.65       -19.73333             0.0       0       0
      18            1.98       -19.73333             0.0       0       0
      19            2.31       -19.73333             0.0       0       0
      20            2.64       -19.73333             0.0       0       0
$ ... 14446 like lines cut
*SECTION_SOLID_TITLE
Ball
$#   secid    elform       aet    unused    unused    unused    cohoff    unused
         2         1         0                                       0          
*SET_NODE_LIST_TITLE
NODESET(SPC) 52
$#     sid       da1       da2       da3       da4    solver      
        52       0.0       0.0       0.0       0.0MECH
$#    nid1      nid2      nid3      nid4      nid5      nid6      nid7      nid8
      1651      1652      1653      1654      1655      1656      1657      1658
      1659      1660      1661      3312      3313      3314      3315      3316
      3317      3318      3319      3320      3321      3322         1         2
         3         4         5         6         7         8         9        10
        11      1662      1663      1664      1665      1666      1667      1668
      1669      1670      1671      1672         0         0         0         0
*SET_NODE_LIST_TITLE
NODESET(SPC) 55
$#     sid       da1       da2       da3       da4    solver      
        55       0.0       0.0       0.0       0.0MECH
$#    nid1      nid2      nid3      nid4      nid5      nid6      nid7      nid8
     15859     15860     15861     15862     15863     15864     15865     15866
     15867     15868     15869     15870     15871     15872     15873     15874
     15875     15876     15877     15878     15879     15880     15881     15882
     15883     15884     15885     15886     15887     15888     15889     15890
     15891     15892     15893     15894     15895     15896     15897     15898
     15899     15900     15901     15902     15903     15904     15905     15906
     15907     15908     15909     15910     15911     15912     15913     15914
     15915     15916     15917     15918     15919     15920     15921     15922
     15923     15924     15925     15926     15927     15928     15929     15930
     15931     15932     15933     15934     15935     15936     15937     15938
     15939     15940     15941     15942     15943     15944     15945     15946
     15947     15948     15949     15950     15951     15952     15953     15954
     15955     15956     15957     15958     15959     15960     15961     15962
     15963     15964     15965     15966     15967     15968     15969     15970
     15971     15972     15973     15974     15975     15976     15977     15978
     15979     15980     15981     15982     15983     15984     15985     15986
     15987     15988     15989     15990     15991     15992     15993     15994
     15995     15996     15997     15998     15999     16000     16001     16002
     16003     16004     16005     16006     16007     16008     16009     16010
     16011     16012     16013     16014     16015     16016     16017     16018
$ ... 698 like lines cut
*SET_NODE_LIST_TITLE
NODESET(SPC) 56
$#     sid       da1       da2       da3       da4    solver      
        56       0.0       0.0       0.0       0.0MECH
$#    nid1      nid2      nid3      nid4      nid5      nid6      nid7      nid8
      1651      1652      1653      1654      1655      1656      1657      1658
      1659      1660      1661      3312      3313      3314      3315      3316
      3317      3318      3319      3320      3321      3322         1         2
         3         4         5         6         7         8         9        10
        11      1662      1663      1664      1665      1666      1667      1668
      1669      1670      1671      1672     14401     14402     14403     14404
     14405     14406     14407     14408     14409     15130     15131     15132
     15133     15134     15135     15136     15137     15138     15121     15122
     15123     15124     15125     15126     15127     15128     15129     15850
     15851     15852     15853     15854     15855     15856     15857     15858
*SET_NODE_LIST_TITLE
NODESET(SPC) 57
$#     sid       da1       da2       da3       da4    solver      
        57       0.0       0.0       0.0       0.0MECH
$#    nid1      nid2      nid3      nid4      nid5      nid6      nid7      nid8
     16821     16822     16823     16824     16825     16826     16827     16828
     16829     16830     16831     16832     16833     16834     16835     16836
     16837     16838     16839     16840     16841     16842     16843     16844
     16845     16846     16847     16848     16849     16850     16851     16852
     16853     16854     16855     16856     16857     16858     16859     16860
     16861     16862     16863     16864     16865     16866     16867     16868
     16869     16870     16871     16872     16873     16874     16875     16876
     16877     16878     16879     16880     16881     16882     16883     16884
     16885     16886     16887     16888     16889     16890     16891     16892
     16893     16894     16895     16896     16897     16898     16899     16900
     16901     16902     16903     16904     16905     16906     16907     16908
     16909     16910     16911     16912     16913     16914     16915     16916
     16917     16918     16919     16920     16921     16922     16923     16924
     16925     16926     16927     16928     16929     16930     16931     16932
     16933     16934     16935     16936     16937     16938     16939     16940
     16941     16942     16943     16944     16945     16946     16947     16948
     16949     16950     16951     16952     16953     16954     16955     16956
     16957     16958     16959     16960     16961     16962     16963     16964
     16965     16966     16967     16968     16969     16970     16971     16972
     16973     16974     16975     16976     16977     16978     16979     16980
$ ... 675 like lines cut
*END
