$# LS-DYNA Keyword file created by LS-PrePost(R) V4.8.25 - 04Jan2022
$# Created on Feb-10-2022 (11:20:10)
*KEYWORD  
*CONTROL_ACCURACY
$#     osu       inn    pidosu      iacc    
         1         4         0         0
*CONTROL_BULK_VISCOSITY
$#      q1        q2      type     btype    tstype      
       1.5      0.06        -2         0         0
*CONTROL_CONTACT
$#  slsfac    rwpnal    islchk    shlthk    penopt    thkchg     orien    enmass
       0.2       0.0         1         0         1         0         1         0
$#  usrstr    usrfrc     nsbcs    interm     xpene     ssthk      ecdt   tiedprj
         0         0         0         0       4.0         0         0         0
$#   sfric     dfric       edc       vfc        th     th_sf    pen_sf      
       0.0       0.0       0.0       0.0       0.0       0.0       0.0
$#  ignore    frceng   skiprwg    outseg   spotstp   spotdel   spothin       
         2         1         0         0         0         0       0.0
$#    isym    nserod    rwgaps    rwgdth     rwksf      icov    swradf    ithoff
         0         0         1       0.0       1.0         0       0.0         0
$#  shledg    pstiff    ithcnt    tdcnof     ftall    unused    shltrw    igactc
         0         0         0         0         0                 0.0         0
*CONTROL_DISCRETE_ELEMENT
$#   ndamp     tdamp     frics     fricr     normk    sheark       cap       vtk
       0.0       0.0       0.0       0.0      0.01       0.0         0         0
$#   gamma       vol       ang       gap    unused    ignore      nbuf  parallel

$#   lnorm    lshear    unused     fricd        dc      ncrb        bt        dt
         0         0                 0.0       0.0         0       0.01.00000E20
$#      cp        tc      tfac    
       0.0       0.0       0.0
$# idesoft    sofscl    unused     iskip     
         0       0.1                  20
*CONTROL_ENERGY
$#    hgen      rwen    slnten     rylen     irgen     
         2         1         2         2         1
*CONTROL_HOURGLASS
$#     ihq        qh  
         3       0.1
*CONTROL_OUTPUT
$#   npopt    neecho    nrefup    iaccop     opifs    ipnint    ikedit    iflush
         0         0         0         0       0.0         0       100      5000
$#   iprtf    ierode   tet10s8    msgmax    ipcurv      gmdt   ip1dblt      eocs
         0         1         2        50         0       0.0         0         0
$#   tolev    newleg    frfreq     minfo    solsig    msgflg    cdetol      
         2         0         1         0         0         0      10.0
$# phschng    demden   icrfile   spc2bnd    penout    shlsig   hisnout    engout
         0         0         0         0         0         0         0         0
$#    insf    isolsf      ibsf      issf    mlkbag      
         0         0         0         0         0
*CONTROL_SOLID
$#   esort   fmatrix   niptets    swlocl    psfail   t10jtol    icohed    tet13k
         1         0         4         1         0       0.0         0         0
$#   pm1     pm2     pm3     pm4     pm5     pm6     pm7     pm8     pm9    pm10
       0       0       0       0       0       0       0       0       0       0
*CONTROL_SOLUTION
$#    soln       nlq     isnan     lcint     lcacc     ncdcf     nocop     
         0         0         0       400         1         1         0
*CONTROL_TERMINATION
$#  endtim    endcyc     dtmin    endeng    endmas     nosol     
5.00000E-5         0       0.0       0.01.000000E8         0
*CONTROL_TIMESTEP
$#  dtinit    tssfac      isdo    tslimt     dt2ms      lctm     erode     ms1st
       0.0       0.1         0       0.0       0.0         0         0         0
$#  dt2msf   dt2mslc     imscl    unused    unused     rmscl    unused      ihdo
       0.0         0         0                           0.0                   0
*DATABASE_GLSTAT
$#      dt    binary      lcur     ioopt     
1.00000E-8         0         0         1
*DATABASE_GLSTAT_MASS_PROPERTIES
$#      dt    binary      lcur     ioopt     
1.00000E-8         0         0         1
*DATABASE_MATSUM
$#      dt    binary      lcur     ioopt     
1.00000E-8         0         0         1
*DATABASE_SLEOUT
$#      dt    binary      lcur     ioopt     
1.00000E-8         0         0         1
*DATABASE_BINARY_D3PLOT
$#      dt      lcdt      beam     npltc    psetid      
       0.0         0         0        20         0
$#   ioopt      rate    cutoff    window      type      pset    
         0       0.0       0.0       0.0         0         0
*DATABASE_EXTENT_BINARY
$#   neiph     neips    maxint    strflg    sigflg    epsflg    rltflg    engflg
        20        20         3         0         1         1         1         1
$#  cmpflg    ieverp    beamip     dcomp      shge     stssz    n3thdt   ialemat
         0         0         0         1         1         1         2         1
$# nintsld   pkp_sen      sclp     hydro     msscl     therm    intout    nodout
         0         0       1.0         2         0         0                    
$#    dtdt    resplt     neipb     quadr     cubic     
         0         0         0         0         0
*CONTACT_ERODING_NODES_TO_SURFACE_ID
$#     cid                                                                 title
         3                                                                      
$#    ssid      msid     sstyp     mstyp    sboxid    mboxid       spr       mpr
        50        12         4         2         0         0         0         0
$#      fs        fd        dc        vc       vdc    penchk        bt        dt
      0.01      0.01       0.0       0.0       5.0         0       0.01.00000E20
$#     sfs       sfm       sst       mst      sfst      sfmt       fsf       vsf
       1.0       1.0       0.0       0.0       1.0       1.0       1.0       1.0
$#    isym    erosop      iadj    
         1         1         1
$#    soft    sofscl    lcidab    maxpar     sbopt     depth     bsort    frcfrq
         1       0.1         0     1.025       2.0         2         1         1
*SET_NODE_GENERAL_TITLE
Particles
$#     sid       da1       da2       da3       da4    solver      
        50       0.0       0.0       0.0       0.0MECH
$#  option        e1        e2        e3        e4        e5        e6        e7
PART              10        20        30         0         0         0         0
*SET_PART_LIST_TITLE
Parts
$#     sid       da1       da2       da3       da4    solver      
        12       0.0       0.0       0.0       0.0MECH
$#    pid1      pid2      pid3      pid4      pid5      pid6      pid7      pid8
         2         1         3         0         0         0         0         0
*DEFINE_ADAPTIVE_SOLID_TO_DES_ID
$#     did                                                               heading
         1                                                                      
$#    ipid     itype        nq     ipdes     isdes       rsf    outdes     ibond
         2         0         1        10         1       1.0         0         0
*DEFINE_ADAPTIVE_SOLID_TO_DES_ID
         2                                                                      
         1         0         1        20         2       1.0         0         0
*DEFINE_ADAPTIVE_SOLID_TO_DES_ID
         3                                                                      
         3         0         1        30         1       1.0         0         0
*ELEMENT_SOLID
$#   eid     pid      n1      n2      n3      n4      n5      n6      n7      n8
       1       2 5066715 5066716 5066718 5066717 5066737 5066738 5066740 5066739
       2       2 5066717 5066718 5066720 5066719 5066739 5066740 5066742 5066741
       3       2 5066719 5066720 5066722 5066721 5066741 5066742 5066744 5066743
       4       2 5066721 5066722 5066724 5066723 5066743 5066744 5066746 5066745
       5       2 5066723 5066724 5066726 5066725 5066745 5066746 5066748 5066747
       6       2 5066725 5066726 5066728 5066727 5066747 5066748 5066750 5066749
       7       2 5066727 5066728 5066730 5066729 5066749 5066750 5066752 5066751
       8       2 5066729 5066730 5066732 5066731 5066751 5066752 5066754 5066753
       9       2 5066731 5066732 5066734 5066733 5066753 5066754 5066756 5066755
      10       2 5066733 5066734 5066736 5066735 5066755 5066756 5066758 5066757
      11       2 5066737 5066738 5066740 5066739 5066759 5066760 5066762 5066761
      12       2 5066739 5066740 5066742 5066741 5066761 5066762 5066764 5066763
      13       2 5066741 5066742 5066744 5066743 5066763 5066764 5066766 5066765
      14       2 5066743 5066744 5066746 5066745 5066765 5066766 5066768 5066767
      15       2 5066745 5066746 5066748 5066747 5066767 5066768 5066770 5066769
      16       2 5066747 5066748 5066750 5066749 5066769 5066770 5066772 5066771
      17       2 5066749 5066750 5066752 5066751 5066771 5066772 5066774 5066773
      18       2 5066751 5066752 5066754 5066753 5066773 5066774 5066776 5066775
      19       2 5066753 5066754 5066756 5066755 5066775 5066776 5066778 5066777
      20       2 5066755 5066756 5066758 5066757 5066777 5066778 5066780 5066779
$ ... 1180 like lines cut
*NODE
$#   nid               x               y               z      tc      rc  
 5066715           101.2           -45.0           -45.0       0       0
 5066716           104.4           -45.0           -45.0       0       0
 5066717           101.2           -36.0           -45.0       0       0
 5066718           104.4           -36.0           -45.0       0       0
 5066719           101.2           -27.0           -45.0       0       0
 5066720           104.4           -27.0           -45.0       0       0
 5066721           101.2           -18.0           -45.0       0       0
 5066722           104.4           -18.0           -45.0       0       0
 5066723           101.2            -9.0           -45.0       0       0
 5066724           104.4            -9.0           -45.0       0       0
 5066725           101.2             0.0           -45.0       0       0
 5066726           104.4             0.0           -45.0       0       0
 5066727           101.2             9.0           -45.0       0       0
 5066728           104.4             9.0           -45.0       0       0
 5066729           101.2            18.0           -45.0       0       0
 5066730           104.4            18.0           -45.0       0       0
 5066731           101.2            27.0           -45.0       0       0
 5066732           104.4            27.0           -45.0       0       0
 5066733           101.2            36.0           -45.0       0       0
 5066734           104.4            36.0           -45.0       0       0
$ ... 1710 like lines cut
*INITIAL_VELOCITY_GENERATION
$#      id      styp     omega        vx        vy        vz     ivatn      icid
         3         2       0.0   8000000       0.0       0.0         0         0
$#      xc        yc        zc        nx        ny        nz     phase    irigid
       0.0       0.0       0.0       0.0       0.0       0.0         0         0
*PART
$#                                                                         title
Target
$#     pid     secid       mid     eosid      hgid      grav    adpopt      tmid
         1         1         1         2         0         0         0         0
*SECTION_SOLID_TITLE
Target_Wall_Particles
$#   secid    elform       aet    unused    unused    unused    cohoff    unused
         1         1         0                                       0          
*MAT_USER_DEFINED_MATERIAL_MODELS_TITLE
Aluminium
$#     mid        ro        mt       lmc       nhv    iortho     ibulk        ig
         12.70000E-9        47        48        20         0         1         2
$#   ivect     ifail    itherm    ihyper      ieos      lmca    unused    unused
         1         1         0         0         1         0                    
$        k         g         e        pr      beta       xsi    cp*rho     alpha
$#      p1        p2        p3        p4        p5        p6        p7        p8
  58333.33  26923.08   70000.0       0.3       0.0       0.9     2.4572.32000E-5
$    e0dot        tr        tm        t0
$#      p1        p2        p3        p4        p5        p6        p7        p8
1.00000E-4     293.0     893.0     293.0         0       0.0       0.0       0.0
$        a         b         n         c         m
$#      p1        p2        p3        p4        p5        p6        p7        p8
     270.0       0.0       0.0      0.02       1.0         0       0.0       0.0
$       q1        c1        q2        c2
$#      p1        p2        p3        p4        p5        p6        p7        p8
       2.7    2160.7     707.6      8.94         0       0.0       0.0       0.0
$       dc        wc
$#      p1        p2        p3        p4        p5        p6        p7        p8
       1.0     278.0         0       0.0       0.0       0.0       0.0       0.0
$       tc      tauc       pco
$#      p1        p2        p3        p4        p5        p6        p7        p8
     804.01.00000E20     -1000         0       0.0       0.0       0.0       0.0
*EOS_LINEAR_POLYNOMIAL_TITLE
Linear
$#   eosid        c0        c1        c2        c3        c4        c5        c6
         2       0.0  100000.0       0.0       0.0       0.0       0.0       0.0
$#      e0        v0  
       0.0       1.0
*PART
$#                                                                         title
Wall
$#     pid     secid       mid     eosid      hgid      grav    adpopt      tmid
         2         1         1         2         0         0         0         0
*PART
$#                                                                         title
Ball
$#     pid     secid       mid     eosid      hgid      grav    adpopt      tmid
         3         2         1         2         0         0         0         0
*SECTION_SOLID_TITLE
Ball
$#   secid    elform       aet    unused    unused    unused    cohoff    unused
         2         1         0                                       0          
*PART
$#                                                                         title
Particle Target
$#     pid     secid       mid     eosid      hgid      grav    adpopt      tmid
        10         1         1         2         0         0         0         0
*PART
$#                                                                         title
Particle Wall
$#     pid     secid       mid     eosid      hgid      grav    adpopt      tmid
        20         1         1         2         0         0         0         0
*PART
$#                                                                         title
Particle Ball
$#     pid     secid       mid     eosid      hgid      grav    adpopt      tmid
        30         1         1         2         0         0         0         0
*END
