 LS-DYNA keyword deck by LS-PrePost                                      
                         ls-dyna mpp.148931 d           date 06/19/2020


 dt of cycle       1 is controlled by solid           2726 of part         2

 time...........................   0.00000E+00
 time step......................   1.26540E-09
 kinetic energy.................   1.08678E+06
 internal energy................   3.20000E-19
 spring and damper energy.......   1.60000E-19
 hourglass energy ..............   0.00000E+00
 system damping energy..........   0.00000E+00
 sliding interface energy.......   0.00000E+00
 external work..................   0.00000E+00
 eroded kinetic energy..........   0.00000E+00
 eroded internal energy.........   0.00000E+00
 eroded hourglass energy........   0.00000E+00
 total energy...................   1.08678E+06
 total energy / initial energy..   1.00000E+00
 energy ratio w/o eroded energy.   1.00000E+00
 global x velocity..............   2.29836E+06
 global y velocity..............   0.00000E+00
 global z velocity..............   0.00000E+00
 time per zone cycle.(nanosec)..             0

  m a s s   p r o p e r t i e s   o f   b o d y
     total mass of body          = 1.41149880E-07
     x-coordinate of mass center =-1.31728530E+00
     y-coordinate of mass center =-4.35393684E-09
     z-coordinate of mass center = 1.25000000E-01

     inertia tensor of body
     row1=     1.2644E-05    -4.1658E-15     3.2932E-17
     row2=    -4.1658E-15     2.7448E-06     1.3246E-22
     row3=     3.2932E-17     1.3246E-22     1.5384E-05



     principal inertias of body
     i11 =     1.2644E-05
     i22 =     2.7448E-06
     i33 =     1.5384E-05

     principal directions
     row1=     1.0000E+00     4.2082E-10     0.0000E+00
     row2=    -4.2082E-10     1.0000E+00     0.0000E+00
     row3=     0.0000E+00     0.0000E+00     1.0000E+00

 ************************************************************



 dt of cycle       8 is controlled by solid           2726 of part         2

 time...........................   8.85780E-09
 time step......................   1.26540E-09
 kinetic energy.................   1.08678E+06
 internal energy................   3.20000E-19
 spring and damper energy.......   1.60000E-19
 hourglass energy ..............   1.28928E-27
 system damping energy..........   0.00000E+00
 sliding interface energy.......   0.00000E+00
 external work..................   0.00000E+00
 eroded kinetic energy..........   0.00000E+00
 eroded internal energy.........   0.00000E+00
 eroded hourglass energy........   0.00000E+00
 total energy...................   1.08678E+06
 total energy / initial energy..   1.00000E+00
 energy ratio w/o eroded energy.   1.00000E+00
 global x velocity..............   2.29836E+06
 global y velocity..............  -5.32991E-30
 global z velocity..............   0.00000E+00
 time per zone cycle.(nanosec)..            73

  m a s s   p r o p e r t i e s   o f   b o d y
     total mass of body          = 1.41149880E-07
     x-coordinate of mass center =-1.29692690E+00
     y-coordinate of mass center =-4.35393684E-09
     z-coordinate of mass center = 1.25000000E-01

     inertia tensor of body
     row1=     1.2644E-05    -4.1418E-15     3.2423E-17
     row2=    -4.1418E-15     2.7122E-06     1.3246E-22
     row3=     3.2423E-17     1.3246E-22     1.5352E-05



     principal inertias of body
     i11 =     1.2644E-05
     i22 =     2.7122E-06
     i33 =     1.5352E-05

     principal directions
     row1=     1.0000E+00     4.1703E-10     0.0000E+00
     row2=    -4.1703E-10     1.0000E+00     0.0000E+00
     row3=     0.0000E+00     0.0000E+00     1.0000E+00

 ************************************************************



 dt of cycle      16 is controlled by solid           2726 of part         2

 time...........................   1.89810E-08
 time step......................   1.26540E-09
 kinetic energy.................   1.08678E+06
 internal energy................   3.20000E-19
 spring and damper energy.......   1.60000E-19
 hourglass energy ..............   2.76011E-27
 system damping energy..........   0.00000E+00
 sliding interface energy.......   0.00000E+00
 external work..................   0.00000E+00
 eroded kinetic energy..........   0.00000E+00
 eroded internal energy.........   0.00000E+00
 eroded hourglass energy........   0.00000E+00
 total energy...................   1.08678E+06
 total energy / initial energy..   1.00000E+00
 energy ratio w/o eroded energy.   1.00000E+00
 global x velocity..............   2.29836E+06
 global y velocity..............  -2.66496E-30
 global z velocity..............   0.00000E+00
 time per zone cycle.(nanosec)..            75

  m a s s   p r o p e r t i e s   o f   b o d y
     total mass of body          = 1.41149880E-07
     x-coordinate of mass center =-1.27366016E+00
     y-coordinate of mass center =-4.35393684E-09
     z-coordinate of mass center = 1.25000000E-01

     inertia tensor of body
     row1=     1.2644E-05    -4.1144E-15     3.1842E-17
     row2=    -4.1144E-15     2.6753E-06     1.3246E-22
     row3=     3.1842E-17     1.3246E-22     1.5315E-05



     principal inertias of body
     i11 =     1.2644E-05
     i22 =     2.6753E-06
     i33 =     1.5315E-05

     principal directions
     row1=     1.0000E+00     4.1274E-10     0.0000E+00
     row2=    -4.1274E-10     1.0000E+00     0.0000E+00
     row3=     0.0000E+00     0.0000E+00     1.0000E+00

 ************************************************************



 dt of cycle      24 is controlled by solid           2726 of part         2

 time...........................   2.91042E-08
 time step......................   1.26540E-09
 kinetic energy.................   1.08678E+06
 internal energy................   3.20000E-19
 spring and damper energy.......   1.60000E-19
 hourglass energy ..............   4.21426E-27
 system damping energy..........   0.00000E+00
 sliding interface energy.......   0.00000E+00
 external work..................   0.00000E+00
 eroded kinetic energy..........   0.00000E+00
 eroded internal energy.........   0.00000E+00
 eroded hourglass energy........   0.00000E+00
 total energy...................   1.08678E+06
 total energy / initial energy..   1.00000E+00
 energy ratio w/o eroded energy.   1.00000E+00
 global x velocity..............   2.29836E+06
 global y velocity..............   0.00000E+00
 global z velocity..............   0.00000E+00
 time per zone cycle.(nanosec)..            71

  m a s s   p r o p e r t i e s   o f   b o d y
     total mass of body          = 1.41149880E-07
     x-coordinate of mass center =-1.25039342E+00
     y-coordinate of mass center =-4.35393684E-09
     z-coordinate of mass center = 1.25000000E-01

     inertia tensor of body
     row1=     1.2644E-05    -4.0871E-15     3.1260E-17
     row2=    -4.0871E-15     2.6387E-06     1.3246E-22
     row3=     3.1260E-17     1.3246E-22     1.5278E-05



     principal inertias of body
     i11 =     1.2644E-05
     i22 =     2.6387E-06
     i33 =     1.5278E-05

     principal directions
     row1=     1.0000E+00     4.0849E-10     0.0000E+00
     row2=    -4.0849E-10     1.0000E+00     0.0000E+00
     row3=     0.0000E+00     0.0000E+00     1.0000E+00

 ************************************************************



 dt of cycle      32 is controlled by solid           2726 of part         2

 time...........................   3.92274E-08
 time step......................   1.26540E-09
 kinetic energy.................   1.08678E+06
 internal energy................   3.20000E-19
 spring and damper energy.......   1.60000E-19
 hourglass energy ..............   5.68997E-27
 system damping energy..........   0.00000E+00
 sliding interface energy.......   0.00000E+00
 external work..................   0.00000E+00
 eroded kinetic energy..........   0.00000E+00
 eroded internal energy.........   0.00000E+00
 eroded hourglass energy........   0.00000E+00
 total energy...................   1.08678E+06
 total energy / initial energy..   1.00000E+00
 energy ratio w/o eroded energy.   1.00000E+00
 global x velocity..............   2.29836E+06
 global y velocity..............  -2.13196E-28
 global z velocity..............   0.00000E+00
 time per zone cycle.(nanosec)..            72

  m a s s   p r o p e r t i e s   o f   b o d y
     total mass of body          = 1.41149880E-07
     x-coordinate of mass center =-1.22712668E+00
     y-coordinate of mass center =-4.35393684E-09
     z-coordinate of mass center = 1.25000000E-01

     inertia tensor of body
     row1=     1.2644E-05    -4.0597E-15     3.0678E-17
     row2=    -4.0597E-15     2.6023E-06     1.3246E-22
     row3=     3.0678E-17     1.3246E-22     1.5242E-05



     principal inertias of body
     i11 =     1.2644E-05
     i22 =     2.6023E-06
     i33 =     1.5242E-05

     principal directions
     row1=     1.0000E+00     4.0429E-10     0.0000E+00
     row2=    -4.0429E-10     1.0000E+00     0.0000E+00
     row3=     0.0000E+00     0.0000E+00     1.0000E+00

 ************************************************************



 dt of cycle      40 is controlled by solid           2726 of part         2

 time...........................   4.93506E-08
 time step......................   1.26540E-09
 kinetic energy.................   1.08678E+06
 internal energy................   3.20000E-19
 spring and damper energy.......   1.60000E-19
 hourglass energy ..............   7.08050E-27
 system damping energy..........   0.00000E+00
 sliding interface energy.......   0.00000E+00
 external work..................   0.00000E+00
 eroded kinetic energy..........   0.00000E+00
 eroded internal energy.........   0.00000E+00
 eroded hourglass energy........   0.00000E+00
 total energy...................   1.08678E+06
 total energy / initial energy..   1.00000E+00
 energy ratio w/o eroded energy.   1.00000E+00
 global x velocity..............   2.29836E+06
 global y velocity..............   7.99487E-29
 global z velocity..............   0.00000E+00
 time per zone cycle.(nanosec)..            70

  m a s s   p r o p e r t i e s   o f   b o d y
     total mass of body          = 1.41149880E-07
     x-coordinate of mass center =-1.20385994E+00
     y-coordinate of mass center =-4.35393684E-09
     z-coordinate of mass center = 1.25000000E-01

     inertia tensor of body
     row1=     1.2644E-05    -4.0323E-15     3.0097E-17
     row2=    -4.0323E-15     2.5663E-06     1.3246E-22
     row3=     3.0097E-17     1.3246E-22     1.5206E-05



     principal inertias of body
     i11 =     1.2644E-05
     i22 =     2.5663E-06
     i33 =     1.5206E-05

     principal directions
     row1=     1.0000E+00     4.0012E-10     0.0000E+00
     row2=    -4.0012E-10     1.0000E+00     0.0000E+00
     row3=     0.0000E+00     0.0000E+00     1.0000E+00

 ************************************************************



 dt of cycle      48 is controlled by solid           2726 of part         2

 time...........................   5.94738E-08
 time step......................   1.26540E-09
 kinetic energy.................   1.08678E+06
 internal energy................   3.20000E-19
 spring and damper energy.......   1.60000E-19
 hourglass energy ..............   8.50830E-27
 system damping energy..........   0.00000E+00
 sliding interface energy.......   0.00000E+00
 external work..................   0.00000E+00
 eroded kinetic energy..........   0.00000E+00
 eroded internal energy.........   0.00000E+00
 eroded hourglass energy........   0.00000E+00
 total energy...................   1.08678E+06
 total energy / initial energy..   1.00000E+00
 energy ratio w/o eroded energy.   1.00000E+00
 global x velocity..............   2.29836E+06
 global y velocity..............   2.45176E-28
 global z velocity..............   0.00000E+00
 time per zone cycle.(nanosec)..            81

  m a s s   p r o p e r t i e s   o f   b o d y
     total mass of body          = 1.41149880E-07
     x-coordinate of mass center =-1.18059319E+00
     y-coordinate of mass center =-4.35393684E-09
     z-coordinate of mass center = 1.25000000E-01

     inertia tensor of body
     row1=     1.2644E-05    -4.0049E-15     2.9515E-17
     row2=    -4.0049E-15     2.5305E-06     1.3246E-22
     row3=     2.9515E-17     1.3246E-22     1.5170E-05



     principal inertias of body
     i11 =     1.2644E-05
     i22 =     2.5305E-06
     i33 =     1.5170E-05

     principal directions
     row1=     1.0000E+00     3.9600E-10     0.0000E+00
     row2=    -3.9600E-10     1.0000E+00     0.0000E+00
     row3=     0.0000E+00     0.0000E+00     1.0000E+00

 ************************************************************



 dt of cycle      56 is controlled by solid           2726 of part         2

 time...........................   6.95970E-08
 time step......................   1.26540E-09
 kinetic energy.................   1.08678E+06
 internal energy................   3.20000E-19
 spring and damper energy.......   1.60000E-19
 hourglass energy ..............   9.96198E-27
 system damping energy..........   0.00000E+00
 sliding interface energy.......   0.00000E+00
 external work..................   0.00000E+00
 eroded kinetic energy..........   0.00000E+00
 eroded internal energy.........   0.00000E+00
 eroded hourglass energy........   0.00000E+00
 total energy...................   1.08678E+06
 total energy / initial energy..   1.00000E+00
 energy ratio w/o eroded energy.   1.00000E+00
 global x velocity..............   2.29836E+06
 global y velocity..............   2.93145E-28
 global z velocity..............   0.00000E+00
 time per zone cycle.(nanosec)..            79

  m a s s   p r o p e r t i e s   o f   b o d y
     total mass of body          = 1.41149880E-07
     x-coordinate of mass center =-1.15732645E+00
     y-coordinate of mass center =-4.35393684E-09
     z-coordinate of mass center = 1.25000000E-01

     inertia tensor of body
     row1=     1.2644E-05    -3.9775E-15     2.8933E-17
     row2=    -3.9775E-15     2.4951E-06     1.3246E-22
     row3=     2.8933E-17     1.3246E-22     1.5135E-05



     principal inertias of body
     i11 =     1.2644E-05
     i22 =     2.4951E-06
     i33 =     1.5135E-05

     principal directions
     row1=     1.0000E+00     3.9192E-10     0.0000E+00
     row2=    -3.9192E-10     1.0000E+00     0.0000E+00
     row3=     0.0000E+00     0.0000E+00     1.0000E+00

 ************************************************************



 dt of cycle      64 is controlled by solid           2726 of part         2

 time...........................   7.97202E-08
 time step......................   1.26540E-09
 kinetic energy.................   1.08678E+06
 internal energy................   3.20000E-19
 spring and damper energy.......   1.60000E-19
 hourglass energy ..............   1.14203E-26
 system damping energy..........   0.00000E+00
 sliding interface energy.......   0.00000E+00
 external work..................   0.00000E+00
 eroded kinetic energy..........   0.00000E+00
 eroded internal energy.........   0.00000E+00
 eroded hourglass energy........   0.00000E+00
 total energy...................   1.08678E+06
 total energy / initial energy..   1.00000E+00
 energy ratio w/o eroded energy.   1.00000E+00
 global x velocity..............   2.29836E+06
 global y velocity..............  -8.95425E-28
 global z velocity..............   0.00000E+00
 time per zone cycle.(nanosec)..            77

  m a s s   p r o p e r t i e s   o f   b o d y
     total mass of body          = 1.41149880E-07
     x-coordinate of mass center =-1.13405971E+00
     y-coordinate of mass center =-4.35393684E-09
     z-coordinate of mass center = 1.25000000E-01

     inertia tensor of body
     row1=     1.2644E-05    -3.9501E-15     2.8351E-17
     row2=    -3.9501E-15     2.4599E-06     1.3246E-22
     row3=     2.8351E-17     1.3246E-22     1.5099E-05



     principal inertias of body
     i11 =     1.2644E-05
     i22 =     2.4599E-06
     i33 =     1.5099E-05

     principal directions
     row1=     1.0000E+00     3.8788E-10     0.0000E+00
     row2=    -3.8788E-10     1.0000E+00     0.0000E+00
     row3=     0.0000E+00     0.0000E+00     1.0000E+00

 ************************************************************



 dt of cycle      72 is controlled by solid           2726 of part         2

 time...........................   8.98434E-08
 time step......................   1.26540E-09
 kinetic energy.................   1.08678E+06
 internal energy................   3.20000E-19
 spring and damper energy.......   1.60000E-19
 hourglass energy ..............   1.28638E-26
 system damping energy..........   0.00000E+00
 sliding interface energy.......   0.00000E+00
 external work..................   0.00000E+00
 eroded kinetic energy..........   0.00000E+00
 eroded internal energy.........   0.00000E+00
 eroded hourglass energy........   0.00000E+00
 total energy...................   1.08678E+06
 total energy / initial energy..   1.00000E+00
 energy ratio w/o eroded energy.   1.00000E+00
 global x velocity..............   2.29836E+06
 global y velocity..............   1.06598E-28
 global z velocity..............   0.00000E+00
 time per zone cycle.(nanosec)..            79

  m a s s   p r o p e r t i e s   o f   b o d y
     total mass of body          = 1.41149880E-07
     x-coordinate of mass center =-1.11079297E+00
     y-coordinate of mass center =-4.35393684E-09
     z-coordinate of mass center = 1.25000000E-01

     inertia tensor of body
     row1=     1.2644E-05    -3.9228E-15     2.7770E-17
     row2=    -3.9228E-15     2.4250E-06     1.3246E-22
     row3=     2.7770E-17     1.3246E-22     1.5065E-05



     principal inertias of body
     i11 =     1.2644E-05
     i22 =     2.4250E-06
     i33 =     1.5065E-05

     principal directions
     row1=     1.0000E+00     3.8387E-10     0.0000E+00
     row2=    -3.8387E-10     1.0000E+00     0.0000E+00
     row3=     0.0000E+00     0.0000E+00     1.0000E+00

 ************************************************************



 dt of cycle      80 is controlled by solid           2726 of part         2

 time...........................   9.99665E-08
 time step......................   1.26540E-09
 kinetic energy.................   1.08678E+06
 internal energy................   3.20000E-19
 spring and damper energy.......   1.60000E-19
 hourglass energy ..............   1.43027E-26
 system damping energy..........   0.00000E+00
 sliding interface energy.......   0.00000E+00
 external work..................   0.00000E+00
 eroded kinetic energy..........   0.00000E+00
 eroded internal energy.........   0.00000E+00
 eroded hourglass energy........   0.00000E+00
 total energy...................   1.08678E+06
 total energy / initial energy..   1.00000E+00
 energy ratio w/o eroded energy.   1.00000E+00
 global x velocity..............   2.29836E+06
 global y velocity..............  -6.39589E-29
 global z velocity..............   0.00000E+00
 time per zone cycle.(nanosec)..            78

  m a s s   p r o p e r t i e s   o f   b o d y
     total mass of body          = 1.41149880E-07
     x-coordinate of mass center =-1.08752622E+00
     y-coordinate of mass center =-4.35393684E-09
     z-coordinate of mass center = 1.25000000E-01

     inertia tensor of body
     row1=     1.2644E-05    -3.8954E-15     2.7188E-17
     row2=    -3.8954E-15     2.3904E-06     1.3246E-22
     row3=     2.7188E-17     1.3246E-22     1.5030E-05



     principal inertias of body
     i11 =     1.2644E-05
     i22 =     2.3904E-06
     i33 =     1.5030E-05

     principal directions
     row1=     1.0000E+00     3.7991E-10     0.0000E+00
     row2=    -3.7991E-10     1.0000E+00     0.0000E+00
     row3=     0.0000E+00     0.0000E+00     1.0000E+00

 ************************************************************



 dt of cycle      87 is controlled by solid           2726 of part         2

 time...........................   1.08824E-07
 time step......................   1.26540E-09
 kinetic energy.................   1.08678E+06
 internal energy................   3.20000E-19
 spring and damper energy.......   1.60000E-19
 hourglass energy ..............   1.55542E-26
 system damping energy..........   0.00000E+00
 sliding interface energy.......   0.00000E+00
 external work..................   0.00000E+00
 eroded kinetic energy..........   0.00000E+00
 eroded internal energy.........   0.00000E+00
 eroded hourglass energy........   0.00000E+00
 total energy...................   1.08678E+06
 total energy / initial energy..   1.00000E+00
 energy ratio w/o eroded energy.   1.00000E+00
 global x velocity..............   2.29836E+06
 global y velocity..............  -4.05073E-28
 global z velocity..............   0.00000E+00
 time per zone cycle.(nanosec)..            71

  m a s s   p r o p e r t i e s   o f   b o d y
     total mass of body          = 1.41149880E-07
     x-coordinate of mass center =-1.06716782E+00
     y-coordinate of mass center =-4.35393684E-09
     z-coordinate of mass center = 1.25000000E-01

     inertia tensor of body
     row1=     1.2644E-05    -3.8714E-15     2.6679E-17
     row2=    -3.8714E-15     2.3604E-06     1.3246E-22
     row3=     2.6679E-17     1.3246E-22     1.5000E-05



     principal inertias of body
     i11 =     1.2644E-05
     i22 =     2.3604E-06
     i33 =     1.5000E-05

     principal directions
     row1=     1.0000E+00     3.7647E-10     0.0000E+00
     row2=    -3.7647E-10     1.0000E+00     0.0000E+00
     row3=     0.0000E+00     0.0000E+00     1.0000E+00

 ************************************************************



 dt of cycle      95 is controlled by solid           2726 of part         2

 time...........................   1.18948E-07
 time step......................   1.26540E-09
 kinetic energy.................   1.08678E+06
 internal energy................   3.20000E-19
 spring and damper energy.......   1.60000E-19
 hourglass energy ..............   1.69764E-26
 system damping energy..........   0.00000E+00
 sliding interface energy.......   0.00000E+00
 external work..................   0.00000E+00
 eroded kinetic energy..........   0.00000E+00
 eroded internal energy.........   0.00000E+00
 eroded hourglass energy........   0.00000E+00
 total energy...................   1.08678E+06
 total energy / initial energy..   1.00000E+00
 energy ratio w/o eroded energy.   1.00000E+00
 global x velocity..............   2.29836E+06
 global y velocity..............   8.10147E-28
 global z velocity..............   0.00000E+00
 time per zone cycle.(nanosec)..            73

  m a s s   p r o p e r t i e s   o f   b o d y
     total mass of body          = 1.41149880E-07
     x-coordinate of mass center =-1.04390108E+00
     y-coordinate of mass center =-4.35393684E-09
     z-coordinate of mass center = 1.25000000E-01

     inertia tensor of body
     row1=     1.2644E-05    -3.8440E-15     2.6098E-17
     row2=    -3.8440E-15     2.3264E-06     1.3246E-22
     row3=     2.6098E-17     1.3246E-22     1.4966E-05



     principal inertias of body
     i11 =     1.2644E-05
     i22 =     2.3264E-06
     i33 =     1.4966E-05

     principal directions
     row1=     1.0000E+00     3.7257E-10     0.0000E+00
     row2=    -3.7257E-10     1.0000E+00     0.0000E+00
     row3=     0.0000E+00     0.0000E+00     1.0000E+00

 ************************************************************



 dt of cycle     103 is controlled by solid           2726 of part         2

 time...........................   1.29071E-07
 time step......................   1.26540E-09
 kinetic energy.................   1.08678E+06
 internal energy................   3.20000E-19
 spring and damper energy.......   1.60000E-19
 hourglass energy ..............   1.84023E-26
 system damping energy..........   0.00000E+00
 sliding interface energy.......   0.00000E+00
 external work..................   0.00000E+00
 eroded kinetic energy..........   0.00000E+00
 eroded internal energy.........   0.00000E+00
 eroded hourglass energy........   0.00000E+00
 total energy...................   1.08678E+06
 total energy / initial energy..   1.00000E+00
 energy ratio w/o eroded energy.   1.00000E+00
 global x velocity..............   2.29836E+06
 global y velocity..............  -8.10147E-28
 global z velocity..............   0.00000E+00
 time per zone cycle.(nanosec)..            72

  m a s s   p r o p e r t i e s   o f   b o d y
     total mass of body          = 1.41149880E-07
     x-coordinate of mass center =-1.02063434E+00
     y-coordinate of mass center =-4.35393684E-09
     z-coordinate of mass center = 1.25000000E-01

     inertia tensor of body
     row1=     1.2644E-05    -3.8166E-15     2.5516E-17
     row2=    -3.8166E-15     2.2926E-06     1.3246E-22
     row3=     2.5516E-17     1.3246E-22     1.4932E-05



     principal inertias of body
     i11 =     1.2644E-05
     i22 =     2.2926E-06
     i33 =     1.4932E-05

     principal directions
     row1=     1.0000E+00     3.6871E-10     0.0000E+00
     row2=    -3.6871E-10     1.0000E+00     0.0000E+00
     row3=     0.0000E+00     0.0000E+00     1.0000E+00

 ************************************************************



 dt of cycle     111 is controlled by solid           2726 of part         2

 time...........................   1.39194E-07
 time step......................   1.26540E-09
 kinetic energy.................   1.08678E+06
 internal energy................   3.20000E-19
 spring and damper energy.......   1.60000E-19
 hourglass energy ..............   1.98283E-26
 system damping energy..........   0.00000E+00
 sliding interface energy.......   0.00000E+00
 external work..................   0.00000E+00
 eroded kinetic energy..........   0.00000E+00
 eroded internal energy.........   0.00000E+00
 eroded hourglass energy........   0.00000E+00
 total energy...................   1.08678E+06
 total energy / initial energy..   1.00000E+00
 energy ratio w/o eroded energy.   1.00000E+00
 global x velocity..............   2.29836E+06
 global y velocity..............  -2.21724E-27
 global z velocity..............   0.00000E+00
 time per zone cycle.(nanosec)..            73

  m a s s   p r o p e r t i e s   o f   b o d y
     total mass of body          = 1.41149880E-07
     x-coordinate of mass center =-9.97367597E-01
     y-coordinate of mass center =-4.35393684E-09
     z-coordinate of mass center = 1.25000000E-01

     inertia tensor of body
     row1=     1.2644E-05    -3.7893E-15     2.4934E-17
     row2=    -3.7893E-15     2.2592E-06     1.3246E-22
     row3=     2.4934E-17     1.3246E-22     1.4899E-05



     principal inertias of body
     i11 =     1.2644E-05
     i22 =     2.2592E-06
     i33 =     1.4899E-05

     principal directions
     row1=     1.0000E+00     3.6489E-10     0.0000E+00
     row2=    -3.6489E-10     1.0000E+00     0.0000E+00
     row3=     0.0000E+00     0.0000E+00     1.0000E+00

 ************************************************************



 dt of cycle     119 is controlled by solid           2751 of part         2

 time...........................   1.49624E-07
 time step......................   1.31653E-09
 kinetic energy.................   1.08678E+06
 internal energy................   3.20000E-19
 spring and damper energy.......   1.60000E-19
 hourglass energy ..............   2.13005E-26
 system damping energy..........   0.00000E+00
 sliding interface energy.......   0.00000E+00
 external work..................   0.00000E+00
 eroded kinetic energy..........   0.00000E+00
 eroded internal energy.........   0.00000E+00
 eroded hourglass energy........   0.00000E+00
 total energy...................   1.08678E+06
 total energy / initial energy..   1.00000E+00
 energy ratio w/o eroded energy.   1.00000E+00
 global x velocity..............   2.29836E+06
 global y velocity..............  -1.36446E-27
 global z velocity..............   0.00000E+00
 time per zone cycle.(nanosec)..            79

  m a s s   p r o p e r t i e s   o f   b o d y
     total mass of body          = 1.41149880E-07
     x-coordinate of mass center =-9.73395783E-01
     y-coordinate of mass center =-4.35393684E-09
     z-coordinate of mass center = 1.25000000E-01

     inertia tensor of body
     row1=     1.2644E-05    -3.7611E-15     2.4335E-17
     row2=    -3.7611E-15     2.2250E-06     1.3246E-22
     row3=     2.4335E-17     1.3246E-22     1.4865E-05



     principal inertias of body
     i11 =     1.2644E-05
     i22 =     2.2250E-06
     i33 =     1.4865E-05

     principal directions
     row1=     1.0000E+00     3.6098E-10     0.0000E+00
     row2=    -3.6098E-10     1.0000E+00     0.0000E+00
     row3=     0.0000E+00     0.0000E+00     1.0000E+00

 ************************************************************



 dt of cycle     126 is controlled by solid           2726 of part         2

 time...........................   1.58788E-07
 time step......................   1.26540E-09
 kinetic energy.................   1.08678E+06
 internal energy................   3.20000E-19
 spring and damper energy.......   1.60000E-19
 hourglass energy ..............   2.24966E-26
 system damping energy..........   0.00000E+00
 sliding interface energy.......   0.00000E+00
 external work..................   0.00000E+00
 eroded kinetic energy..........   0.00000E+00
 eroded internal energy.........   0.00000E+00
 eroded hourglass energy........   0.00000E+00
 total energy...................   1.08678E+06
 total energy / initial energy..   1.00000E+00
 energy ratio w/o eroded energy.   1.00000E+00
 global x velocity..............   2.29836E+06
 global y velocity..............   1.36446E-27
 global z velocity..............   0.00000E+00
 time per zone cycle.(nanosec)..            72

  m a s s   p r o p e r t i e s   o f   b o d y
     total mass of body          = 1.41149880E-07
     x-coordinate of mass center =-9.52332312E-01
     y-coordinate of mass center =-4.35393684E-09
     z-coordinate of mass center = 1.25000000E-01

     inertia tensor of body
     row1=     1.2644E-05    -3.7363E-15     2.3808E-17
     row2=    -3.7363E-15     2.1953E-06     1.3246E-22
     row3=     2.3808E-17     1.3246E-22     1.4835E-05



     principal inertias of body
     i11 =     1.2644E-05
     i22 =     2.1953E-06
     i33 =     1.4835E-05

     principal directions
     row1=     1.0000E+00     3.5758E-10     0.0000E+00
     row2=    -3.5758E-10     1.0000E+00     0.0000E+00
     row3=     0.0000E+00     0.0000E+00     1.0000E+00

 ************************************************************



 dt of cycle     134 is controlled by solid           2726 of part         2

 time...........................   1.68912E-07
 time step......................   1.26540E-09
 kinetic energy.................   1.08678E+06
 internal energy................   3.20000E-19
 spring and damper energy.......   1.60000E-19
 hourglass energy ..............   2.37865E-26
 system damping energy..........   0.00000E+00
 sliding interface energy.......   0.00000E+00
 external work..................   0.00000E+00
 eroded kinetic energy..........   0.00000E+00
 eroded internal energy.........   0.00000E+00
 eroded hourglass energy........   0.00000E+00
 total energy...................   1.08678E+06
 total energy / initial energy..   1.00000E+00
 energy ratio w/o eroded energy.   1.00000E+00
 global x velocity..............   2.29836E+06
 global y velocity..............   2.94211E-27
 global z velocity..............   0.00000E+00
 time per zone cycle.(nanosec)..            72

  m a s s   p r o p e r t i e s   o f   b o d y
     total mass of body          = 1.41149880E-07
     x-coordinate of mass center =-9.29065570E-01
     y-coordinate of mass center =-4.35393684E-09
     z-coordinate of mass center = 1.25000000E-01

     inertia tensor of body
     row1=     1.2644E-05    -3.7089E-15     2.3227E-17
     row2=    -3.7089E-15     2.1627E-06     1.3246E-22
     row3=     2.3227E-17     1.3246E-22     1.4802E-05



     principal inertias of body
     i11 =     1.2644E-05
     i22 =     2.1627E-06
     i33 =     1.4802E-05

     principal directions
     row1=     1.0000E+00     3.5386E-10     0.0000E+00
     row2=    -3.5386E-10     1.0000E+00     0.0000E+00
     row3=     0.0000E+00     0.0000E+00     1.0000E+00

 ************************************************************



 dt of cycle     142 is controlled by solid           2726 of part         2

 time...........................   1.79035E-07
 time step......................   1.26540E-09
 kinetic energy.................   1.08678E+06
 internal energy................   3.20000E-19
 spring and damper energy.......   1.60000E-19
 hourglass energy ..............   2.50871E-26
 system damping energy..........   0.00000E+00
 sliding interface energy.......   0.00000E+00
 external work..................   0.00000E+00
 eroded kinetic energy..........   0.00000E+00
 eroded internal energy.........   0.00000E+00
 eroded hourglass energy........   0.00000E+00
 total energy...................   1.08678E+06
 total energy / initial energy..   1.00000E+00
 energy ratio w/o eroded energy.   1.00000E+00
 global x velocity..............   2.29836E+06
 global y velocity..............   8.95425E-28
 global z velocity..............   0.00000E+00
 time per zone cycle.(nanosec)..            74

  m a s s   p r o p e r t i e s   o f   b o d y
     total mass of body          = 1.41149880E-07
     x-coordinate of mass center =-9.05798828E-01
     y-coordinate of mass center =-4.35393684E-09
     z-coordinate of mass center = 1.25000000E-01

     inertia tensor of body
     row1=     1.2644E-05    -3.6815E-15     2.2645E-17
     row2=    -3.6815E-15     2.1304E-06     1.3246E-22
     row3=     2.2645E-17     1.3246E-22     1.4770E-05



     principal inertias of body
     i11 =     1.2644E-05
     i22 =     2.1304E-06
     i33 =     1.4770E-05

     principal directions
     row1=     1.0000E+00     3.5017E-10     0.0000E+00
     row2=    -3.5017E-10     1.0000E+00     0.0000E+00
     row3=     0.0000E+00     0.0000E+00     1.0000E+00

 ************************************************************



 dt of cycle     150 is controlled by solid           2726 of part         2

 time...........................   1.89158E-07
 time step......................   1.26540E-09
 kinetic energy.................   1.08678E+06
 internal energy................   3.20000E-19
 spring and damper energy.......   1.60000E-19
 hourglass energy ..............   2.63889E-26
 system damping energy..........   0.00000E+00
 sliding interface energy.......   0.00000E+00
 external work..................   0.00000E+00
 eroded kinetic energy..........   0.00000E+00
 eroded internal energy.........   0.00000E+00
 eroded hourglass energy........   0.00000E+00
 total energy...................   1.08678E+06
 total energy / initial energy..   1.00000E+00
 energy ratio w/o eroded energy.   1.00000E+00
 global x velocity..............   2.29836E+06
 global y velocity..............  -8.52786E-28
 global z velocity..............   0.00000E+00
 time per zone cycle.(nanosec)..            71

  m a s s   p r o p e r t i e s   o f   b o d y
     total mass of body          = 1.41149880E-07
     x-coordinate of mass center =-8.82532085E-01
     y-coordinate of mass center =-4.35393684E-09
     z-coordinate of mass center = 1.25000000E-01

     inertia tensor of body
     row1=     1.2644E-05    -3.6541E-15     2.2063E-17
     row2=    -3.6541E-15     2.0984E-06     1.3246E-22
     row3=     2.2063E-17     1.3246E-22     1.4738E-05



     principal inertias of body
     i11 =     1.2644E-05
     i22 =     2.0984E-06
     i33 =     1.4738E-05

     principal directions
     row1=     1.0000E+00     3.4651E-10     0.0000E+00
     row2=    -3.4651E-10     1.0000E+00     0.0000E+00
     row3=     0.0000E+00     0.0000E+00     1.0000E+00

 ************************************************************



 dt of cycle     158 is controlled by solid           2726 of part         2

 time...........................   1.99281E-07
 time step......................   1.26540E-09
 kinetic energy.................   1.08678E+06
 internal energy................   3.20000E-19
 spring and damper energy.......   1.60000E-19
 hourglass energy ..............   2.76965E-26
 system damping energy..........   0.00000E+00
 sliding interface energy.......   0.00000E+00
 external work..................   0.00000E+00
 eroded kinetic energy..........   0.00000E+00
 eroded internal energy.........   0.00000E+00
 eroded hourglass energy........   0.00000E+00
 total energy...................   1.08678E+06
 total energy / initial energy..   1.00000E+00
 energy ratio w/o eroded energy.   1.00000E+00
 global x velocity..............   2.29836E+06
 global y velocity..............   9.80704E-28
 global z velocity..............   0.00000E+00
 time per zone cycle.(nanosec)..            76

  m a s s   p r o p e r t i e s   o f   b o d y
     total mass of body          = 1.41149880E-07
     x-coordinate of mass center =-8.59265343E-01
     y-coordinate of mass center =-4.35393684E-09
     z-coordinate of mass center = 1.25000000E-01

     inertia tensor of body
     row1=     1.2644E-05    -3.6267E-15     2.1482E-17
     row2=    -3.6267E-15     2.0667E-06     1.3246E-22
     row3=     2.1482E-17     1.3246E-22     1.4706E-05



     principal inertias of body
     i11 =     1.2644E-05
     i22 =     2.0667E-06
     i33 =     1.4706E-05

     principal directions
     row1=     1.0000E+00     3.4288E-10     0.0000E+00
     row2=    -3.4288E-10     1.0000E+00     0.0000E+00
     row3=     0.0000E+00     0.0000E+00     1.0000E+00

 ************************************************************



 dt of cycle     166 is controlled by solid           2726 of part         2

 time...........................   2.09404E-07
 time step......................   1.26540E-09
 kinetic energy.................   1.08678E+06
 internal energy................   3.20000E-19
 spring and damper energy.......   1.60000E-19
 hourglass energy ..............   2.90118E-26
 system damping energy..........   0.00000E+00
 sliding interface energy.......   0.00000E+00
 external work..................   0.00000E+00
 eroded kinetic energy..........   0.00000E+00
 eroded internal energy.........   0.00000E+00
 eroded hourglass energy........   0.00000E+00
 total energy...................   1.08678E+06
 total energy / initial energy..   1.00000E+00
 energy ratio w/o eroded energy.   1.00000E+00
 global x velocity..............   2.29836E+06
 global y velocity..............  -1.70557E-27
 global z velocity..............   0.00000E+00
 time per zone cycle.(nanosec)..            80

  m a s s   p r o p e r t i e s   o f   b o d y
     total mass of body          = 1.41149880E-07
     x-coordinate of mass center =-8.35998600E-01
     y-coordinate of mass center =-4.35393684E-09
     z-coordinate of mass center = 1.25000000E-01

     inertia tensor of body
     row1=     1.2644E-05    -3.5993E-15     2.0900E-17
     row2=    -3.5993E-15     2.0353E-06     1.3246E-22
     row3=     2.0900E-17     1.3246E-22     1.4675E-05



     principal inertias of body
     i11 =     1.2644E-05
     i22 =     2.0353E-06
     i33 =     1.4675E-05

     principal directions
     row1=     1.0000E+00     3.3928E-10     0.0000E+00
     row2=    -3.3928E-10     1.0000E+00     0.0000E+00
     row3=     0.0000E+00     0.0000E+00     1.0000E+00

 ************************************************************



 dt of cycle     174 is controlled by solid           2726 of part         2

 time...........................   2.19528E-07
 time step......................   1.26540E-09
 kinetic energy.................   1.08678E+06
 internal energy................   3.20000E-19
 spring and damper energy.......   1.60000E-19
 hourglass energy ..............   3.03324E-26
 system damping energy..........   0.00000E+00
 sliding interface energy.......   0.00000E+00
 external work..................   0.00000E+00
 eroded kinetic energy..........   0.00000E+00
 eroded internal energy.........   0.00000E+00
 eroded hourglass energy........   0.00000E+00
 total energy...................   1.08678E+06
 total energy / initial energy..   1.00000E+00
 energy ratio w/o eroded energy.   1.00000E+00
 global x velocity..............   2.29836E+06
 global y velocity..............   9.38064E-28
 global z velocity..............   0.00000E+00
 time per zone cycle.(nanosec)..            79

  m a s s   p r o p e r t i e s   o f   b o d y
     total mass of body          = 1.41149880E-07
     x-coordinate of mass center =-8.12731858E-01
     y-coordinate of mass center =-4.35393684E-09
     z-coordinate of mass center = 1.25000000E-01

     inertia tensor of body
     row1=     1.2644E-05    -3.5720E-15     2.0318E-17
     row2=    -3.5720E-15     2.0042E-06     1.3246E-22
     row3=     2.0318E-17     1.3246E-22     1.4644E-05



     principal inertias of body
     i11 =     1.2644E-05
     i22 =     2.0042E-06
     i33 =     1.4644E-05

     principal directions
     row1=     1.0000E+00     3.3572E-10     0.0000E+00
     row2=    -3.3572E-10     1.0000E+00     0.0000E+00
     row3=     0.0000E+00     0.0000E+00     1.0000E+00

 ************************************************************



 dt of cycle     182 is controlled by solid           2726 of part         2

 time...........................   2.29651E-07
 time step......................   1.26540E-09
 kinetic energy.................   1.08678E+06
 internal energy................   3.20000E-19
 spring and damper energy.......   1.60000E-19
 hourglass energy ..............   3.16552E-26
 system damping energy..........   0.00000E+00
 sliding interface energy.......   0.00000E+00
 external work..................   0.00000E+00
 eroded kinetic energy..........   0.00000E+00
 eroded internal energy.........   0.00000E+00
 eroded hourglass energy........   0.00000E+00
 total energy...................   1.08678E+06
 total energy / initial energy..   1.00000E+00
 energy ratio w/o eroded energy.   1.00000E+00
 global x velocity..............   2.29836E+06
 global y velocity..............  -1.62029E-27
 global z velocity..............   0.00000E+00
 time per zone cycle.(nanosec)..            80

  m a s s   p r o p e r t i e s   o f   b o d y
     total mass of body          = 1.41149880E-07
     x-coordinate of mass center =-7.89465116E-01
     y-coordinate of mass center =-4.35393684E-09
     z-coordinate of mass center = 1.25000000E-01

     inertia tensor of body
     row1=     1.2644E-05    -3.5446E-15     1.9737E-17
     row2=    -3.5446E-15     1.9733E-06     1.3246E-22
     row3=     1.9737E-17     1.3246E-22     1.4613E-05



     principal inertias of body
     i11 =     1.2644E-05
     i22 =     1.9733E-06
     i33 =     1.4613E-05

     principal directions
     row1=     1.0000E+00     3.3218E-10     0.0000E+00
     row2=    -3.3218E-10     1.0000E+00     0.0000E+00
     row3=     0.0000E+00     0.0000E+00     1.0000E+00

 ************************************************************



 dt of cycle     190 is controlled by solid           2726 of part         2

 time...........................   2.39774E-07
 time step......................   1.26540E-09
 kinetic energy.................   1.08678E+06
 internal energy................   3.20000E-19
 spring and damper energy.......   1.60000E-19
 hourglass energy ..............   3.29920E-26
 system damping energy..........   0.00000E+00
 sliding interface energy.......   0.00000E+00
 external work..................   0.00000E+00
 eroded kinetic energy..........   0.00000E+00
 eroded internal energy.........   0.00000E+00
 eroded hourglass energy........   0.00000E+00
 total energy...................   1.08678E+06
 total energy / initial energy..   1.00000E+00
 energy ratio w/o eroded energy.   1.00000E+00
 global x velocity..............   2.29836E+06
 global y velocity..............  -1.36446E-27
 global z velocity..............   0.00000E+00
 time per zone cycle.(nanosec)..            77

  m a s s   p r o p e r t i e s   o f   b o d y
     total mass of body          = 1.41149880E-07
     x-coordinate of mass center =-7.66198373E-01
     y-coordinate of mass center =-4.35393684E-09
     z-coordinate of mass center = 1.25000000E-01

     inertia tensor of body
     row1=     1.2644E-05    -3.5172E-15     1.9155E-17
     row2=    -3.5172E-15     1.9428E-06     1.3246E-22
     row3=     1.9155E-17     1.3246E-22     1.4582E-05



     principal inertias of body
     i11 =     1.2644E-05
     i22 =     1.9428E-06
     i33 =     1.4582E-05

     principal directions
     row1=     1.0000E+00     3.2867E-10     0.0000E+00
     row2=    -3.2867E-10     1.0000E+00     0.0000E+00
     row3=     0.0000E+00     0.0000E+00     1.0000E+00

 ************************************************************



 dt of cycle     198 is controlled by solid           2726 of part         2

 time...........................   2.49897E-07
 time step......................   1.26540E-09
 kinetic energy.................   1.08678E+06
 internal energy................   3.20000E-19
 spring and damper energy.......   1.60000E-19
 hourglass energy ..............   3.43451E-26
 system damping energy..........   0.00000E+00
 sliding interface energy.......   0.00000E+00
 external work..................   0.00000E+00
 eroded kinetic energy..........   0.00000E+00
 eroded internal energy.........   0.00000E+00
 eroded hourglass energy........   0.00000E+00
 total energy...................   1.08678E+06
 total energy / initial energy..   1.00000E+00
 energy ratio w/o eroded energy.   1.00000E+00
 global x velocity..............   2.29836E+06
 global y velocity..............   8.10147E-28
 global z velocity..............   0.00000E+00
 time per zone cycle.(nanosec)..            81

  m a s s   p r o p e r t i e s   o f   b o d y
     total mass of body          = 1.41149880E-07
     x-coordinate of mass center =-7.42931631E-01
     y-coordinate of mass center =-4.35393684E-09
     z-coordinate of mass center = 1.25000000E-01

     inertia tensor of body
     row1=     1.2644E-05    -3.4898E-15     1.8573E-17
     row2=    -3.4898E-15     1.9125E-06     1.3246E-22
     row3=     1.8573E-17     1.3246E-22     1.4552E-05



     principal inertias of body
     i11 =     1.2644E-05
     i22 =     1.9125E-06
     i33 =     1.4552E-05

     principal directions
     row1=     1.0000E+00     3.2520E-10     0.0000E+00
     row2=    -3.2520E-10     1.0000E+00     0.0000E+00
     row3=     0.0000E+00     0.0000E+00     1.0000E+00

 ************************************************************



 dt of cycle     205 is controlled by solid           2726 of part         2

 time...........................   2.58755E-07
 time step......................   1.26540E-09
 kinetic energy.................   1.08678E+06
 internal energy................   3.20000E-19
 spring and damper energy.......   1.60000E-19
 hourglass energy ..............   3.55357E-26
 system damping energy..........   0.00000E+00
 sliding interface energy.......   0.00000E+00
 external work..................   0.00000E+00
 eroded kinetic energy..........   0.00000E+00
 eroded internal energy.........   0.00000E+00
 eroded hourglass energy........   0.00000E+00
 total energy...................   1.08678E+06
 total energy / initial energy..   1.00000E+00
 energy ratio w/o eroded energy.   1.00000E+00
 global x velocity..............   2.29836E+06
 global y velocity..............  -2.72891E-27
 global z velocity..............   0.00000E+00
 time per zone cycle.(nanosec)..            78

  m a s s   p r o p e r t i e s   o f   b o d y
     total mass of body          = 1.41149880E-07
     x-coordinate of mass center =-7.22573231E-01
     y-coordinate of mass center =-4.35393684E-09
     z-coordinate of mass center = 1.25000000E-01

     inertia tensor of body
     row1=     1.2644E-05    -3.4658E-15     1.8064E-17
     row2=    -3.4658E-15     1.8863E-06     1.3246E-22
     row3=     1.8064E-17     1.3246E-22     1.4526E-05



     principal inertias of body
     i11 =     1.2644E-05
     i22 =     1.8863E-06
     i33 =     1.4526E-05

     principal directions
     row1=     1.0000E+00     3.2218E-10     0.0000E+00
     row2=    -3.2218E-10     1.0000E+00     0.0000E+00
     row3=     0.0000E+00     0.0000E+00     1.0000E+00

 ************************************************************



 dt of cycle     213 is controlled by solid           2726 of part         2

 time...........................   2.68878E-07
 time step......................   1.26540E-09
 kinetic energy.................   1.08678E+06
 internal energy................   3.20000E-19
 spring and damper energy.......   1.60000E-19
 hourglass energy ..............   3.68980E-26
 system damping energy..........   0.00000E+00
 sliding interface energy.......   0.00000E+00
 external work..................   0.00000E+00
 eroded kinetic energy..........   0.00000E+00
 eroded internal energy.........   0.00000E+00
 eroded hourglass energy........   0.00000E+00
 total energy...................   1.08678E+06
 total energy / initial energy..   1.00000E+00
 energy ratio w/o eroded energy.   1.00000E+00
 global x velocity..............   2.29836E+06
 global y velocity..............   3.41114E-27
 global z velocity..............   0.00000E+00
 time per zone cycle.(nanosec)..            72

  m a s s   p r o p e r t i e s   o f   b o d y
     total mass of body          = 1.41149880E-07
     x-coordinate of mass center =-6.99306489E-01
     y-coordinate of mass center =-4.35393684E-09
     z-coordinate of mass center = 1.25000000E-01

     inertia tensor of body
     row1=     1.2644E-05    -3.4385E-15     1.7483E-17
     row2=    -3.4385E-15     1.8566E-06     1.3246E-22
     row3=     1.7483E-17     1.3246E-22     1.4496E-05



     principal inertias of body
     i11 =     1.2644E-05
     i22 =     1.8566E-06
     i33 =     1.4496E-05

     principal directions
     row1=     1.0000E+00     3.1875E-10     0.0000E+00
     row2=    -3.1875E-10     1.0000E+00     0.0000E+00
     row3=     0.0000E+00     0.0000E+00     1.0000E+00

 ************************************************************



 dt of cycle     221 is controlled by solid           2726 of part         2

 time...........................   2.79001E-07
 time step......................   1.26540E-09
 kinetic energy.................   1.08678E+06
 internal energy................   3.20000E-19
 spring and damper energy.......   1.60000E-19
 hourglass energy ..............   3.82733E-26
 system damping energy..........   0.00000E+00
 sliding interface energy.......   0.00000E+00
 external work..................   0.00000E+00
 eroded kinetic energy..........   0.00000E+00
 eroded internal energy.........   0.00000E+00
 eroded hourglass energy........   0.00000E+00
 total energy...................   1.08678E+06
 total energy / initial energy..   1.00000E+00
 energy ratio w/o eroded energy.   1.00000E+00
 global x velocity..............   2.29836E+06
 global y velocity..............   4.43449E-27
 global z velocity..............   0.00000E+00
 time per zone cycle.(nanosec)..            73

  m a s s   p r o p e r t i e s   o f   b o d y
     total mass of body          = 1.41149880E-07
     x-coordinate of mass center =-6.76039746E-01
     y-coordinate of mass center =-4.35393684E-09
     z-coordinate of mass center = 1.25000000E-01

     inertia tensor of body
     row1=     1.2644E-05    -3.4111E-15     1.6901E-17
     row2=    -3.4111E-15     1.8272E-06     1.3246E-22
     row3=     1.6901E-17     1.3246E-22     1.4467E-05



     principal inertias of body
     i11 =     1.2644E-05
     i22 =     1.8272E-06
     i33 =     1.4467E-05

     principal directions
     row1=     1.0000E+00     3.1535E-10     0.0000E+00
     row2=    -3.1535E-10     1.0000E+00     0.0000E+00
     row3=     0.0000E+00     0.0000E+00     1.0000E+00

 ************************************************************



 dt of cycle     229 is controlled by solid           2726 of part         2

 time...........................   2.89125E-07
 time step......................   1.26540E-09
 kinetic energy.................   1.08678E+06
 internal energy................   3.20000E-19
 spring and damper energy.......   1.60000E-19
 hourglass energy ..............   3.96644E-26
 system damping energy..........   0.00000E+00
 sliding interface energy.......   0.00000E+00
 external work..................   0.00000E+00
 eroded kinetic energy..........   0.00000E+00
 eroded internal energy.........   0.00000E+00
 eroded hourglass energy........   0.00000E+00
 total energy...................   1.08678E+06
 total energy / initial energy..   1.00000E+00
 energy ratio w/o eroded energy.   1.00000E+00
 global x velocity..............   2.29836E+06
 global y velocity..............  -6.09742E-27
 global z velocity..............   0.00000E+00
 time per zone cycle.(nanosec)..            75

  m a s s   p r o p e r t i e s   o f   b o d y
     total mass of body          = 1.41149880E-07
     x-coordinate of mass center =-6.52773004E-01
     y-coordinate of mass center =-4.35393684E-09
     z-coordinate of mass center = 1.25000000E-01

     inertia tensor of body
     row1=     1.2644E-05    -3.3837E-15     1.6319E-17
     row2=    -3.3837E-15     1.7981E-06     1.3246E-22
     row3=     1.6319E-17     1.3246E-22     1.4438E-05



     principal inertias of body
     i11 =     1.2644E-05
     i22 =     1.7981E-06
     i33 =     1.4438E-05

     principal directions
     row1=     1.0000E+00     3.1198E-10     0.0000E+00
     row2=    -3.1198E-10     1.0000E+00     0.0000E+00
     row3=     0.0000E+00     0.0000E+00     1.0000E+00

 ************************************************************



 dt of cycle     237 is controlled by solid           2726 of part         2

 time...........................   2.99248E-07
 time step......................   1.26540E-09
 kinetic energy.................   1.08678E+06
 internal energy................   3.20000E-19
 spring and damper energy.......   1.60000E-19
 hourglass energy ..............   4.10586E-26
 system damping energy..........   0.00000E+00
 sliding interface energy.......   0.00000E+00
 external work..................   0.00000E+00
 eroded kinetic energy..........   0.00000E+00
 eroded internal energy.........   0.00000E+00
 eroded hourglass energy........   0.00000E+00
 total energy...................   1.08678E+06
 total energy / initial energy..   1.00000E+00
 energy ratio w/o eroded energy.   1.00000E+00
 global x velocity..............   2.29836E+06
 global y velocity..............   3.58170E-27
 global z velocity..............   0.00000E+00
 time per zone cycle.(nanosec)..            74

  m a s s   p r o p e r t i e s   o f   b o d y
     total mass of body          = 1.41149880E-07
     x-coordinate of mass center =-6.29506262E-01
     y-coordinate of mass center =-4.35393684E-09
     z-coordinate of mass center = 1.25000000E-01

     inertia tensor of body
     row1=     1.2644E-05    -3.3563E-15     1.5738E-17
     row2=    -3.3563E-15     1.7693E-06     1.3246E-22
     row3=     1.5738E-17     1.3246E-22     1.4409E-05



     principal inertias of body
     i11 =     1.2644E-05
     i22 =     1.7693E-06
     i33 =     1.4409E-05

     principal directions
     row1=     1.0000E+00     3.0864E-10     0.0000E+00
     row2=    -3.0864E-10     1.0000E+00     0.0000E+00
     row3=     0.0000E+00     0.0000E+00     1.0000E+00

 ************************************************************



 dt of cycle     245 is controlled by solid           2726 of part         2

 time...........................   3.09371E-07
 time step......................   1.26540E-09
 kinetic energy.................   1.08678E+06
 internal energy................   3.20000E-19
 spring and damper energy.......   1.60000E-19
 hourglass energy ..............   4.24622E-26
 system damping energy..........   0.00000E+00
 sliding interface energy.......   0.00000E+00
 external work..................   0.00000E+00
 eroded kinetic energy..........   0.00000E+00
 eroded internal energy.........   0.00000E+00
 eroded hourglass energy........   0.00000E+00
 total energy...................   1.08678E+06
 total energy / initial energy..   1.00000E+00
 energy ratio w/o eroded energy.   1.00000E+00
 global x velocity..............   2.29836E+06
 global y velocity..............  -4.22129E-27
 global z velocity..............   0.00000E+00
 time per zone cycle.(nanosec)..            85

  m a s s   p r o p e r t i e s   o f   b o d y
     total mass of body          = 1.41149880E-07
     x-coordinate of mass center =-6.06239519E-01
     y-coordinate of mass center =-4.35393684E-09
     z-coordinate of mass center = 1.25000000E-01

     inertia tensor of body
     row1=     1.2644E-05    -3.3289E-15     1.5156E-17
     row2=    -3.3289E-15     1.7407E-06     1.3246E-22
     row3=     1.5156E-17     1.3246E-22     1.4380E-05



     principal inertias of body
     i11 =     1.2644E-05
     i22 =     1.7407E-06
     i33 =     1.4380E-05

     principal directions
     row1=     1.0000E+00     3.0532E-10     0.0000E+00
     row2=    -3.0532E-10     1.0000E+00     0.0000E+00
     row3=     0.0000E+00     0.0000E+00     1.0000E+00

 ************************************************************



 dt of cycle     253 is controlled by solid           2726 of part         2

 time...........................   3.19494E-07
 time step......................   1.26540E-09
 kinetic energy.................   1.08678E+06
 internal energy................   3.20000E-19
 spring and damper energy.......   1.60000E-19
 hourglass energy ..............   4.38697E-26
 system damping energy..........   0.00000E+00
 sliding interface energy.......   0.00000E+00
 external work..................   0.00000E+00
 eroded kinetic energy..........   0.00000E+00
 eroded internal energy.........   0.00000E+00
 eroded hourglass energy........   0.00000E+00
 total energy...................   1.08678E+06
 total energy / initial energy..   1.00000E+00
 energy ratio w/o eroded energy.   1.00000E+00
 global x velocity..............   2.29836E+06
 global y velocity..............  -5.96950E-28
 global z velocity..............   0.00000E+00
 time per zone cycle.(nanosec)..            81

  m a s s   p r o p e r t i e s   o f   b o d y
     total mass of body          = 1.41149880E-07
     x-coordinate of mass center =-5.82972777E-01
     y-coordinate of mass center =-4.35393684E-09
     z-coordinate of mass center = 1.25000000E-01

     inertia tensor of body
     row1=     1.2644E-05    -3.3015E-15     1.4574E-17
     row2=    -3.3015E-15     1.7125E-06     1.3246E-22
     row3=     1.4574E-17     1.3246E-22     1.4352E-05



     principal inertias of body
     i11 =     1.2644E-05
     i22 =     1.7125E-06
     i33 =     1.4352E-05

     principal directions
     row1=     1.0000E+00     3.0202E-10     0.0000E+00
     row2=    -3.0202E-10     1.0000E+00     0.0000E+00
     row3=     0.0000E+00     0.0000E+00     1.0000E+00

 ************************************************************



 dt of cycle     261 is controlled by solid           2726 of part         2

 time...........................   3.29617E-07
 time step......................   1.26540E-09
 kinetic energy.................   1.08678E+06
 internal energy................   3.20000E-19
 spring and damper energy.......   1.60000E-19
 hourglass energy ..............   4.52858E-26
 system damping energy..........   0.00000E+00
 sliding interface energy.......   0.00000E+00
 external work..................   0.00000E+00
 eroded kinetic energy..........   0.00000E+00
 eroded internal energy.........   0.00000E+00
 eroded hourglass energy........   0.00000E+00
 total energy...................   1.08678E+06
 total energy / initial energy..   1.00000E+00
 energy ratio w/o eroded energy.   1.00000E+00
 global x velocity..............   2.29836E+06
 global y velocity..............   6.35325E-27
 global z velocity..............   0.00000E+00
 time per zone cycle.(nanosec)..            81

  m a s s   p r o p e r t i e s   o f   b o d y
     total mass of body          = 1.41149880E-07
     x-coordinate of mass center =-5.59706034E-01
     y-coordinate of mass center =-4.35393684E-09
     z-coordinate of mass center = 1.25000000E-01

     inertia tensor of body
     row1=     1.2644E-05    -3.2742E-15     1.3993E-17
     row2=    -3.2742E-15     1.6846E-06     1.3246E-22
     row3=     1.3993E-17     1.3246E-22     1.4324E-05



     principal inertias of body
     i11 =     1.2644E-05
     i22 =     1.6846E-06
     i33 =     1.4324E-05

     principal directions
     row1=     1.0000E+00     2.9875E-10     0.0000E+00
     row2=    -2.9875E-10     1.0000E+00     0.0000E+00
     row3=     0.0000E+00     0.0000E+00     1.0000E+00

 ************************************************************



 dt of cycle     271 is controlled by solid           3876 of part         2

 time...........................   3.39717E-07
 time step......................   6.07827E-10
 kinetic energy.................   1.08583E+06
 internal energy................   1.32821E+02
 spring and damper energy.......   1.60000E-19
 hourglass energy ..............   7.93782E+00
 system damping energy..........   0.00000E+00
 sliding interface energy.......   8.16141E+02
 external work..................   0.00000E+00
 eroded kinetic energy..........   0.00000E+00
 eroded internal energy.........   0.00000E+00
 eroded hourglass energy........   0.00000E+00
 total energy...................   1.08679E+06
 total energy / initial energy..   1.00001E+00
 energy ratio w/o eroded energy.   1.00001E+00
 global x velocity..............   2.29836E+06
 global y velocity..............  -1.80028E-14
 global z velocity..............   0.00000E+00
 time per zone cycle.(nanosec)..            90

  m a s s   p r o p e r t i e s   o f   b o d y
     total mass of body          = 1.41149880E-07
     x-coordinate of mass center =-5.36492611E-01
     y-coordinate of mass center =-4.35393684E-09
     z-coordinate of mass center = 1.25000000E-01

     inertia tensor of body
     row1=     1.2644E-05    -3.2279E-15     4.8273E-17
     row2=    -3.2279E-15     1.6570E-06     3.1936E-20
     row3=     4.8273E-17     3.1936E-20     1.4296E-05



     principal inertias of body
     i11 =     1.2644E-05
     i22 =     1.6570E-06
     i33 =     1.4296E-05

     principal directions
     row1=     1.0000E+00     2.9380E-10     0.0000E+00
     row2=    -2.9380E-10     1.0000E+00     0.0000E+00
     row3=     0.0000E+00     0.0000E+00     1.0000E+00

 ************************************************************



 dt of cycle     289 is controlled by solid           3277 of part         2

 time...........................   3.49560E-07
 time step......................   5.28795E-10
 kinetic energy.................   1.08425E+06
 internal energy................   1.32225E+03
 spring and damper energy.......   1.60000E-19
 hourglass energy ..............   4.80271E+01
 system damping energy..........   0.00000E+00
 sliding interface energy.......   1.16692E+03
 external work..................   0.00000E+00
 eroded kinetic energy..........   0.00000E+00
 eroded internal energy.........   0.00000E+00
 eroded hourglass energy........   0.00000E+00
 total energy...................   1.08679E+06
 total energy / initial energy..   1.00001E+00
 energy ratio w/o eroded energy.   1.00001E+00
 global x velocity..............   2.29836E+06
 global y velocity..............  -5.28083E-13
 global z velocity..............   0.00000E+00
 time per zone cycle.(nanosec)..            83

  m a s s   p r o p e r t i e s   o f   b o d y
     total mass of body          = 1.41149880E-07
     x-coordinate of mass center =-5.13871075E-01
     y-coordinate of mass center =-4.35393759E-09
     z-coordinate of mass center = 1.25000000E-01

     inertia tensor of body
     row1=     1.2644E-05    -3.0169E-15     1.3250E-16
     row2=    -3.0169E-15     1.6304E-06    -3.6626E-18
     row3=     1.3250E-16    -3.6626E-18     1.4270E-05



     principal inertias of body
     i11 =     1.2644E-05
     i22 =     1.6304E-06
     i33 =     1.4270E-05

     principal directions
     row1=     1.0000E+00     2.7393E-10     8.1489E-11
     row2=    -2.7393E-10     1.0000E+00    -2.2322E-20
     row3=    -8.1489E-11     0.0000E+00     1.0000E+00

 ************************************************************



 dt of cycle     307 is controlled by solid           3279 of part         2

 time...........................   3.59602E-07
 time step......................   6.40349E-10
 kinetic energy.................   1.08244E+06
 internal energy................   2.96105E+03
 spring and damper energy.......   1.60000E-19
 hourglass energy ..............   1.12087E+02
 system damping energy..........   0.00000E+00
 sliding interface energy.......   1.28239E+03
 external work..................   0.00000E+00
 eroded kinetic energy..........   0.00000E+00
 eroded internal energy.........   0.00000E+00
 eroded hourglass energy........   0.00000E+00
 total energy...................   1.08679E+06
 total energy / initial energy..   1.00001E+00
 energy ratio w/o eroded energy.   1.00001E+00
 global x velocity..............   2.29836E+06
 global y velocity..............  -1.05617E-12
 global z velocity..............   0.00000E+00
 time per zone cycle.(nanosec)..            87

  m a s s   p r o p e r t i e s   o f   b o d y
     total mass of body          = 1.41149880E-07
     x-coordinate of mass center =-4.90791581E-01
     y-coordinate of mass center =-4.35393684E-09
     z-coordinate of mass center = 1.25000000E-01

     inertia tensor of body
     row1=     1.2644E-05    -2.9863E-15     9.5997E-17
     row2=    -2.9863E-15     1.6035E-06    -9.3908E-18
     row3=     9.5997E-17    -9.3908E-18     1.4243E-05



     principal inertias of body
     i11 =     1.2644E-05
     i22 =     1.6035E-06
     i33 =     1.4243E-05

     principal directions
     row1=     1.0000E+00     2.7049E-10     6.0031E-11
     row2=    -2.7049E-10     1.0000E+00    -1.6238E-20
     row3=    -6.0031E-11     0.0000E+00     1.0000E+00

 ************************************************************



 dt of cycle     324 is controlled by solid           3279 of part         2

 time...........................   3.69661E-07
 time step......................   6.49255E-10
 kinetic energy.................   1.08054E+06
 internal energy................   4.57974E+03
 spring and damper energy.......   1.60000E-19
 hourglass energy ..............   2.02849E+02
 system damping energy..........   0.00000E+00
 sliding interface energy.......   1.46274E+03
 external work..................   0.00000E+00
 eroded kinetic energy..........   0.00000E+00
 eroded internal energy.........   0.00000E+00
 eroded hourglass energy........   0.00000E+00
 total energy...................   1.08679E+06
 total energy / initial energy..   1.00001E+00
 energy ratio w/o eroded energy.   1.00001E+00
 global x velocity..............   2.29836E+06
 global y velocity..............  -1.92030E-12
 global z velocity..............   0.00000E+00
 time per zone cycle.(nanosec)..            88

  m a s s   p r o p e r t i e s   o f   b o d y
     total mass of body          = 1.41149880E-07
     x-coordinate of mass center =-4.67671336E-01
     y-coordinate of mass center =-4.35393684E-09
     z-coordinate of mass center = 1.25000000E-01

     inertia tensor of body
     row1=     1.2644E-05    -2.8629E-15    -1.7221E-18
     row2=    -2.8629E-15     1.5769E-06    -1.4581E-17
     row3=    -1.7221E-18    -1.4581E-17     1.4216E-05



     principal inertias of body
     i11 =     1.2644E-05
     i22 =     1.5769E-06
     i33 =     1.4216E-05

     principal directions
     row1=     1.0000E+00     2.5869E-10     0.0000E+00
     row2=    -2.5869E-10     1.0000E+00     0.0000E+00
     row3=     0.0000E+00     0.0000E+00     1.0000E+00

 ************************************************************



 dt of cycle     339 is controlled by solid           3880 of part         2

 time...........................   3.79434E-07
 time step......................   6.49208E-10
 kinetic energy.................   1.07854E+06
 internal energy................   6.39516E+03
 spring and damper energy.......   1.60000E-19
 hourglass energy ..............   2.93057E+02
 system damping energy..........   0.00000E+00
 sliding interface energy.......   1.56167E+03
 external work..................   0.00000E+00
 eroded kinetic energy..........   0.00000E+00
 eroded internal energy.........   0.00000E+00
 eroded hourglass energy........   0.00000E+00
 total energy...................   1.08679E+06
 total energy / initial energy..   1.00001E+00
 energy ratio w/o eroded energy.   1.00001E+00
 global x velocity..............   2.29836E+06
 global y velocity..............  -1.92030E-13
 global z velocity..............   0.00000E+00
 time per zone cycle.(nanosec)..            92

  m a s s   p r o p e r t i e s   o f   b o d y
     total mass of body          = 1.41149880E-07
     x-coordinate of mass center =-4.45210311E-01
     y-coordinate of mass center =-4.35393684E-09
     z-coordinate of mass center = 1.25000000E-01

     inertia tensor of body
     row1=     1.2644E-05    -2.5428E-15    -2.4765E-17
     row2=    -2.5428E-15     1.5513E-06    -2.1045E-17
     row3=    -2.4765E-17    -2.1045E-17     1.4191E-05



     principal inertias of body
     i11 =     1.2644E-05
     i22 =     1.5513E-06
     i33 =     1.4191E-05

     principal directions
     row1=     1.0000E+00     2.2923E-10     0.0000E+00
     row2=    -2.2923E-10     1.0000E+00     0.0000E+00
     row3=     0.0000E+00     0.0000E+00     1.0000E+00

 ************************************************************



 dt of cycle     353 is controlled by solid           3881 of part         2

 time...........................   3.89296E-07
 time step......................   7.38233E-10
 kinetic energy.................   1.07632E+06
 internal energy................   8.24475E+03
 spring and damper energy.......   1.60000E-19
 hourglass energy ..............   4.14179E+02
 system damping energy..........   0.00000E+00
 sliding interface energy.......   1.81307E+03
 external work..................   0.00000E+00
 eroded kinetic energy..........   0.00000E+00
 eroded internal energy.........   0.00000E+00
 eroded hourglass energy........   0.00000E+00
 total energy...................   1.08679E+06
 total energy / initial energy..   1.00001E+00
 energy ratio w/o eroded energy.   1.00001E+00
 global x velocity..............   2.29836E+06
 global y velocity..............  -7.68121E-13
 global z velocity..............   0.00000E+00
 time per zone cycle.(nanosec)..            96

  m a s s   p r o p e r t i e s   o f   b o d y
     total mass of body          = 1.41149880E-07
     x-coordinate of mass center =-4.22542617E-01
     y-coordinate of mass center =-4.35393684E-09
     z-coordinate of mass center = 1.25000000E-01

     inertia tensor of body
     row1=     1.2644E-05    -1.9629E-15    -2.5894E-18
     row2=    -1.9629E-15     1.5258E-06    -3.5040E-17
     row3=    -2.5894E-18    -3.5040E-17     1.4165E-05



     principal inertias of body
     i11 =     1.2644E-05
     i22 =     1.5258E-06
     i33 =     1.4165E-05

     principal directions
     row1=     1.0000E+00     1.7655E-10     0.0000E+00
     row2=    -1.7655E-10     1.0000E+00     0.0000E+00
     row3=     0.0000E+00     0.0000E+00     1.0000E+00

 ************************************************************



 dt of cycle     367 is controlled by solid           3801 of part         2

 time...........................   3.99346E-07
 time step......................   7.17421E-10
 kinetic energy.................   1.07416E+06
 internal energy................   1.01983E+04
 spring and damper energy.......   1.60000E-19
 hourglass energy ..............   5.13625E+02
 system damping energy..........   0.00000E+00
 sliding interface energy.......   1.92168E+03
 external work..................   0.00000E+00
 eroded kinetic energy..........   0.00000E+00
 eroded internal energy.........   0.00000E+00
 eroded hourglass energy........   0.00000E+00
 total energy...................   1.08679E+06
 total energy / initial energy..   1.00001E+00
 energy ratio w/o eroded energy.   1.00001E+00
 global x velocity..............   2.29836E+06
 global y velocity..............  -3.84061E-13
 global z velocity..............   0.00000E+00
 time per zone cycle.(nanosec)..            97

  m a s s   p r o p e r t i e s   o f   b o d y
     total mass of body          = 1.41149880E-07
     x-coordinate of mass center =-3.99443986E-01
     y-coordinate of mass center =-4.35393684E-09
     z-coordinate of mass center = 1.25000000E-01

     inertia tensor of body
     row1=     1.2644E-05    -6.5049E-16     2.1925E-17
     row2=    -6.5049E-16     1.5001E-06    -5.5284E-17
     row3=     2.1925E-17    -5.5284E-17     1.4140E-05



     principal inertias of body
     i11 =     1.2644E-05
     i22 =     1.5001E-06
     i33 =     1.4140E-05

     principal directions
     row1=     1.0000E+00     5.8372E-11     1.4659E-11
     row2=    -5.8372E-11     1.0000E+00    -4.3739E-12
     row3=    -1.4659E-11     4.3739E-12     1.0000E+00

 ************************************************************



 dt of cycle     381 is controlled by solid           3277 of part         2

 time...........................   4.09421E-07
 time step......................   7.11369E-10
 kinetic energy.................   1.07165E+06
 internal energy................   1.22677E+04
 spring and damper energy.......   1.60000E-19
 hourglass energy ..............   6.31942E+02
 system damping energy..........   0.00000E+00
 sliding interface energy.......   2.24727E+03
 external work..................   0.00000E+00
 eroded kinetic energy..........   0.00000E+00
 eroded internal energy.........   0.00000E+00
 eroded hourglass energy........   0.00000E+00
 total energy...................   1.08679E+06
 total energy / initial energy..   1.00001E+00
 energy ratio w/o eroded energy.   1.00001E+00
 global x velocity..............   2.29836E+06
 global y velocity..............  -1.92030E-12
 global z velocity..............   0.00000E+00
 time per zone cycle.(nanosec)..           103

  m a s s   p r o p e r t i e s   o f   b o d y
     total mass of body          = 1.41149880E-07
     x-coordinate of mass center =-3.76288651E-01
     y-coordinate of mass center =-4.35393684E-09
     z-coordinate of mass center = 1.25000000E-01

     inertia tensor of body
     row1=     1.2644E-05    -5.3583E-15     3.4502E-17
     row2=    -5.3583E-15     1.4746E-06    -8.6252E-17
     row3=     3.4502E-17    -8.6252E-17     1.4114E-05



     principal inertias of body
     i11 =     1.2644E-05
     i22 =     1.4746E-06
     i33 =     1.4114E-05

     principal directions
     row1=     1.0000E+00     4.7972E-10     2.3468E-11
     row2=    -4.7972E-10     1.0000E+00    -6.8239E-12
     row3=    -2.3468E-11     6.8239E-12     1.0000E+00

 ************************************************************



 dt of cycle     395 is controlled by solid           3776 of part         2

 time...........................   4.19491E-07
 time step......................   7.32293E-10
 kinetic energy.................   1.06925E+06
 internal energy................   1.45805E+04
 spring and damper energy.......   1.60000E-19
 hourglass energy ..............   7.42115E+02
 system damping energy..........   0.00000E+00
 sliding interface energy.......   2.22144E+03
 external work..................   0.00000E+00
 eroded kinetic energy..........   0.00000E+00
 eroded internal energy.........   0.00000E+00
 eroded hourglass energy........   0.00000E+00
 total energy...................   1.08679E+06
 total energy / initial energy..   1.00001E+00
 energy ratio w/o eroded energy.   1.00001E+00
 global x velocity..............   2.29836E+06
 global y velocity..............   7.68121E-12
 global z velocity..............   0.00000E+00
 time per zone cycle.(nanosec)..           104

  m a s s   p r o p e r t i e s   o f   b o d y
     total mass of body          = 1.41149880E-07
     x-coordinate of mass center =-3.53144926E-01
     y-coordinate of mass center =-4.35393684E-09
     z-coordinate of mass center = 1.25000000E-01

     inertia tensor of body
     row1=     1.2644E-05    -6.6217E-15     7.4631E-17
     row2=    -6.6217E-15     1.4493E-06    -1.3632E-16
     row3=     7.4631E-17    -1.3632E-16     1.4089E-05



     principal inertias of body
     i11 =     1.2644E-05
     i22 =     1.4493E-06
     i33 =     1.4089E-05

     principal directions
     row1=     1.0000E+00     5.9151E-10     5.1650E-11
     row2=    -5.9151E-10     1.0000E+00    -1.0785E-11
     row3=    -5.1650E-11     1.0785E-11     1.0000E+00

 ************************************************************



 dt of cycle     409 is controlled by solid           3876 of part         2

 time...........................   4.29776E-07
 time step......................   7.13807E-10
 kinetic energy.................   1.06642E+06
 internal energy................   1.68423E+04
 spring and damper energy.......   1.60000E-19
 hourglass energy ..............   8.54431E+02
 system damping energy..........   0.00000E+00
 sliding interface energy.......   2.67712E+03
 external work..................   0.00000E+00
 eroded kinetic energy..........   0.00000E+00
 eroded internal energy.........   0.00000E+00
 eroded hourglass energy........   0.00000E+00
 total energy...................   1.08679E+06
 total energy / initial energy..   1.00001E+00
 energy ratio w/o eroded energy.   1.00001E+00
 global x velocity..............   2.29836E+06
 global y velocity..............  -3.07248E-12
 global z velocity..............   0.00000E+00
 time per zone cycle.(nanosec)..           111

  m a s s   p r o p e r t i e s   o f   b o d y
     total mass of body          = 1.41149880E-07
     x-coordinate of mass center =-3.29506487E-01
     y-coordinate of mass center =-4.35393759E-09
     z-coordinate of mass center = 1.25000000E-01

     inertia tensor of body
     row1=     1.2644E-05    -4.8026E-15     1.2268E-16
     row2=    -4.8026E-15     1.4239E-06    -2.1235E-16
     row3=     1.2268E-16    -2.1235E-16     1.4064E-05



     principal inertias of body
     i11 =     1.2644E-05
     i22 =     1.4239E-06
     i33 =     1.4064E-05

     principal directions
     row1=     1.0000E+00     4.2803E-10     8.6425E-11
     row2=    -4.2803E-10     1.0000E+00    -1.6801E-11
     row3=    -8.6425E-11     1.6801E-11     1.0000E+00

 ************************************************************



 dt of cycle     423 is controlled by solid           3276 of part         2

 time...........................   4.39713E-07
 time step......................   7.26653E-10
 kinetic energy.................   1.06393E+06
 internal energy................   1.94262E+04
 spring and damper energy.......   1.60000E-19
 hourglass energy ..............   9.96736E+02
 system damping energy..........   0.00000E+00
 sliding interface energy.......   2.44181E+03
 external work..................   0.00000E+00
 eroded kinetic energy..........   0.00000E+00
 eroded internal energy.........   0.00000E+00
 eroded hourglass energy........   0.00000E+00
 total energy...................   1.08679E+06
 total energy / initial energy..   1.00001E+00
 energy ratio w/o eroded energy.   1.00001E+00
 global x velocity..............   2.29836E+06
 global y velocity..............  -6.14497E-12
 global z velocity..............   0.00000E+00
 time per zone cycle.(nanosec)..           112

  m a s s   p r o p e r t i e s   o f   b o d y
[...]
     i33 =     5.4175E-04

     principal directions
     row1=     9.9999E-01    -3.1696E-03     2.6829E-03
     row2=     3.1698E-03     9.9999E-01    -4.7670E-05
     row3=    -2.6828E-03     5.6174E-05     1.0000E+00

 ************************************************************



 dt of cycle   23946 is controlled by solid           3601 of part         2

 time...........................   2.18993E-05
 time step......................   9.86564E-10
 kinetic energy.................   1.82986E+06
 internal energy................   8.40932E+03
 spring and damper energy.......   1.60000E-19
 hourglass energy ..............   1.92138E+04
 system damping energy..........   0.00000E+00
 sliding interface energy.......   1.43280E+04
 external work..................   0.00000E+00
 eroded kinetic energy..........   8.68016E+05
 eroded internal energy.........   9.44450E+04
 eroded hourglass energy........   1.87375E+04
 total energy...................   1.87181E+06
 total energy / initial energy..   1.72234E+00
 energy ratio w/o eroded energy.   8.19494E-01
 global x velocity..............   2.31868E+06
 global y velocity..............  -1.74608E+02
 global z velocity..............  -1.24914E+04
 time per zone cycle.(nanosec)..           144

  m a s s   p r o p e r t i e s   o f   b o d y
     total mass of body          = 1.47751111E-07
     x-coordinate of mass center = 4.72852389E+01
     y-coordinate of mass center =-6.68679502E-02
     z-coordinate of mass center =-1.25700021E-01

     inertia tensor of body
     row1=     1.0718E-04    -1.0615E-06     1.1672E-06
     row2=    -1.0615E-06     4.4215E-04    -1.9046E-09
     row3=     1.1672E-06    -1.9046E-09     5.4224E-04



     principal inertias of body
     i11 =     1.0717E-04
     i22 =     4.4216E-04
     i33 =     5.4224E-04

     principal directions
     row1=     9.9999E-01    -3.1687E-03     2.6829E-03
     row2=     3.1688E-03     9.9999E-01    -4.7484E-05
     row3=    -2.6828E-03     5.5985E-05     1.0000E+00

 ************************************************************



 dt of cycle   23956 is controlled by solid           3601 of part         2

 time...........................   2.19091E-05
 time step......................   9.86601E-10
 kinetic energy.................   1.82986E+06
 internal energy................   8.40933E+03
 spring and damper energy.......   1.60000E-19
 hourglass energy ..............   1.92138E+04
 system damping energy..........   0.00000E+00
 sliding interface energy.......   1.43280E+04
 external work..................   0.00000E+00
 eroded kinetic energy..........   8.68016E+05
 eroded internal energy.........   9.44450E+04
 eroded hourglass energy........   1.87375E+04
 total energy...................   1.87181E+06
 total energy / initial energy..   1.72234E+00
 energy ratio w/o eroded energy.   8.19494E-01
 global x velocity..............   2.31868E+06
 global y velocity..............  -1.71770E+02
 global z velocity..............  -1.24914E+04
 time per zone cycle.(nanosec)..           143

  m a s s   p r o p e r t i e s   o f   b o d y
     total mass of body          = 1.47751111E-07
     x-coordinate of mass center = 4.73070926E+01
     y-coordinate of mass center =-6.68695829E-02
     z-coordinate of mass center =-1.25817753E-01

     inertia tensor of body
     row1=     1.0726E-04    -1.0623E-06     1.1683E-06
     row2=    -1.0623E-06     4.4257E-04    -1.8874E-09
     row3=     1.1683E-06    -1.8874E-09     5.4273E-04



     principal inertias of body
     i11 =     1.0725E-04
     i22 =     4.4258E-04
     i33 =     5.4274E-04

     principal directions
     row1=     9.9999E-01    -3.1677E-03     2.6830E-03
     row2=     3.1679E-03     9.9999E-01    -4.7298E-05
     row3=    -2.6828E-03     5.5797E-05     1.0000E+00

 ************************************************************



 dt of cycle   23967 is controlled by solid           3601 of part         2

 time...........................   2.19200E-05
 time step......................   9.86636E-10
 kinetic energy.................   1.82986E+06
 internal energy................   8.40935E+03
 spring and damper energy.......   1.60000E-19
 hourglass energy ..............   1.92138E+04
 system damping energy..........   0.00000E+00
 sliding interface energy.......   1.43280E+04
 external work..................   0.00000E+00
 eroded kinetic energy..........   8.68016E+05
 eroded internal energy.........   9.44450E+04
 eroded hourglass energy........   1.87375E+04
 total energy...................   1.87181E+06
 total energy / initial energy..   1.72234E+00
 energy ratio w/o eroded energy.   8.19494E-01
 global x velocity..............   2.31868E+06
 global y velocity..............  -1.68169E+02
 global z velocity..............  -1.24914E+04
 time per zone cycle.(nanosec)..           150

  m a s s   p r o p e r t i e s   o f   b o d y
     total mass of body          = 1.47751111E-07
     x-coordinate of mass center = 4.73311324E+01
     y-coordinate of mass center =-6.68713455E-02
     z-coordinate of mass center =-1.25947263E-01

     inertia tensor of body
     row1=     1.0735E-04    -1.0631E-06     1.1696E-06
     row2=    -1.0631E-06     4.4304E-04    -1.8685E-09
     row3=     1.1696E-06    -1.8685E-09     5.4328E-04



     principal inertias of body
     i11 =     1.0734E-04
     i22 =     4.4304E-04
     i33 =     5.4328E-04

     principal directions
     row1=     9.9999E-01    -3.1667E-03     2.6830E-03
     row2=     3.1668E-03     9.9999E-01    -4.7094E-05
     row3=    -2.6828E-03     5.5590E-05     1.0000E+00

 ************************************************************



 dt of cycle   23977 is controlled by solid           3601 of part         2

 time...........................   2.19298E-05
 time step......................   9.86664E-10
 kinetic energy.................   1.82986E+06
 internal energy................   8.40936E+03
 spring and damper energy.......   1.60000E-19
 hourglass energy ..............   1.92138E+04
 system damping energy..........   0.00000E+00
 sliding interface energy.......   1.43280E+04
 external work..................   0.00000E+00
 eroded kinetic energy..........   8.68016E+05
 eroded internal energy.........   9.44450E+04
 eroded hourglass energy........   1.87375E+04
 total energy...................   1.87181E+06
 total energy / initial energy..   1.72234E+00
 energy ratio w/o eroded energy.   8.19494E-01
 global x velocity..............   2.31868E+06
 global y velocity..............  -1.64514E+02
 global z velocity..............  -1.24914E+04
 time per zone cycle.(nanosec)..           149

  m a s s   p r o p e r t i e s   o f   b o d y
     total mass of body          = 1.47751111E-07
     x-coordinate of mass center = 4.73529875E+01
     y-coordinate of mass center =-6.68729137E-02
     z-coordinate of mass center =-1.26065003E-01

     inertia tensor of body
     row1=     1.0743E-04    -1.0639E-06     1.1707E-06
     row2=    -1.0639E-06     4.4346E-04    -1.8513E-09
     row3=     1.1707E-06    -1.8513E-09     5.4377E-04



     principal inertias of body
     i11 =     1.0742E-04
     i22 =     4.4346E-04
     i33 =     5.4378E-04

     principal directions
     row1=     9.9999E-01    -3.1657E-03     2.6830E-03
     row2=     3.1659E-03     9.9999E-01    -4.6908E-05
     row3=    -2.6829E-03     5.5402E-05     1.0000E+00

 ************************************************************



 dt of cycle   23987 is controlled by solid           3703 of part         2

 time...........................   2.19397E-05
 time step......................   1.02017E-09
 kinetic energy.................   1.82986E+06
 internal energy................   8.40937E+03
 spring and damper energy.......   1.60000E-19
 hourglass energy ..............   1.92138E+04
 system damping energy..........   0.00000E+00
 sliding interface energy.......   1.43280E+04
 external work..................   0.00000E+00
 eroded kinetic energy..........   8.68016E+05
 eroded internal energy.........   9.44450E+04
 eroded hourglass energy........   1.87375E+04
 total energy...................   1.87181E+06
 total energy / initial energy..   1.72234E+00
 energy ratio w/o eroded energy.   8.19494E-01
 global x velocity..............   2.31868E+06
 global y velocity..............  -1.60572E+02
 global z velocity..............  -1.24914E+04
 time per zone cycle.(nanosec)..           152

  m a s s   p r o p e r t i e s   o f   b o d y
     total mass of body          = 1.47751111E-07
     x-coordinate of mass center = 4.73748433E+01
     y-coordinate of mass center =-6.68744460E-02
     z-coordinate of mass center =-1.26182747E-01

     inertia tensor of body
     row1=     1.0751E-04    -1.0646E-06     1.1718E-06
     row2=    -1.0646E-06     4.4388E-04    -1.8341E-09
     row3=     1.1718E-06    -1.8341E-09     5.4427E-04



     principal inertias of body
     i11 =     1.0750E-04
     i22 =     4.4388E-04
     i33 =     5.4427E-04

     principal directions
     row1=     9.9999E-01    -3.1648E-03     2.6831E-03
     row2=     3.1649E-03     9.9999E-01    -4.6723E-05
     row3=    -2.6829E-03     5.5214E-05     1.0000E+00

 ************************************************************



 dt of cycle   23997 is controlled by solid           3703 of part         2

 time...........................   2.19499E-05
 time step......................   1.02018E-09
 kinetic energy.................   1.82986E+06
 internal energy................   8.40939E+03
 spring and damper energy.......   1.60000E-19
 hourglass energy ..............   1.92138E+04
 system damping energy..........   0.00000E+00
 sliding interface energy.......   1.43280E+04
 external work..................   0.00000E+00
 eroded kinetic energy..........   8.68016E+05
 eroded internal energy.........   9.44450E+04
 eroded hourglass energy........   1.87375E+04
 total energy...................   1.87181E+06
 total energy / initial energy..   1.72234E+00
 energy ratio w/o eroded energy.   8.19494E-01
 global x velocity..............   2.31868E+06
 global y velocity..............  -1.56314E+02
 global z velocity..............  -1.24914E+04
 time per zone cycle.(nanosec)..           152

  m a s s   p r o p e r t i e s   o f   b o d y
     total mass of body          = 1.47751111E-07
     x-coordinate of mass center = 4.73974410E+01
     y-coordinate of mass center =-6.68759903E-02
     z-coordinate of mass center =-1.26304488E-01

     inertia tensor of body
     row1=     1.0759E-04    -1.0654E-06     1.1730E-06
     row2=    -1.0654E-06     4.4432E-04    -1.8163E-09
     row3=     1.1730E-06    -1.8163E-09     5.4478E-04



     principal inertias of body
     i11 =     1.0759E-04
     i22 =     4.4432E-04
     i33 =     5.4478E-04

     principal directions
     row1=     9.9999E-01    -3.1638E-03     2.6831E-03
     row2=     3.1639E-03     9.9999E-01    -4.6531E-05
     row3=    -2.6829E-03     5.5019E-05     1.0000E+00

 ************************************************************



 dt of cycle   24006 is controlled by solid           3703 of part         2

 time...........................   2.19591E-05
 time step......................   1.02019E-09
 kinetic energy.................   1.82986E+06
 internal energy................   8.40940E+03
 spring and damper energy.......   1.60000E-19
 hourglass energy ..............   1.92139E+04
 system damping energy..........   0.00000E+00
 sliding interface energy.......   1.43280E+04
 external work..................   0.00000E+00
 eroded kinetic energy..........   8.68016E+05
 eroded internal energy.........   9.44450E+04
 eroded hourglass energy........   1.87375E+04
 total energy...................   1.87181E+06
 total energy / initial energy..   1.72234E+00
 energy ratio w/o eroded energy.   8.19494E-01
 global x velocity..............   2.31868E+06
 global y velocity..............  -1.52415E+02
 global z velocity..............  -1.24914E+04
 time per zone cycle.(nanosec)..           149

  m a s s   p r o p e r t i e s   o f   b o d y
     total mass of body          = 1.47751111E-07
     x-coordinate of mass center = 4.74177791E+01
     y-coordinate of mass center =-6.68773443E-02
     z-coordinate of mass center =-1.26414056E-01

     inertia tensor of body
     row1=     1.0767E-04    -1.0661E-06     1.1740E-06
     row2=    -1.0661E-06     4.4471E-04    -1.8002E-09
     row3=     1.1740E-06    -1.8002E-09     5.4524E-04



     principal inertias of body
     i11 =     1.0766E-04
     i22 =     4.4471E-04
     i33 =     5.4525E-04

     principal directions
     row1=     9.9999E-01    -3.1629E-03     2.6831E-03
     row2=     3.1630E-03     9.9999E-01    -4.6358E-05
     row3=    -2.6830E-03     5.4845E-05     1.0000E+00

 ************************************************************



 dt of cycle   24016 is controlled by solid           3703 of part         2

 time...........................   2.19693E-05
 time step......................   1.02020E-09
 kinetic energy.................   1.82986E+06
 internal energy................   8.40942E+03
 spring and damper energy.......   1.60000E-19
 hourglass energy ..............   1.92139E+04
 system damping energy..........   0.00000E+00
 sliding interface energy.......   1.43280E+04
 external work..................   0.00000E+00
 eroded kinetic energy..........   8.68016E+05
 eroded internal energy.........   9.44450E+04
 eroded hourglass energy........   1.87375E+04
 total energy...................   1.87181E+06
 total energy / initial energy..   1.72234E+00
 energy ratio w/o eroded energy.   8.19494E-01
 global x velocity..............   2.31868E+06
 global y velocity..............  -1.48123E+02
 global z velocity..............  -1.24914E+04
 time per zone cycle.(nanosec)..           142

  m a s s   p r o p e r t i e s   o f   b o d y
     total mass of body          = 1.47751111E-07
     x-coordinate of mass center = 4.74403772E+01
     y-coordinate of mass center =-6.68788087E-02
     z-coordinate of mass center =-1.26535799E-01

     inertia tensor of body
     row1=     1.0775E-04    -1.0669E-06     1.1752E-06
     row2=    -1.0669E-06     4.4515E-04    -1.7824E-09
     row3=     1.1752E-06    -1.7824E-09     5.4576E-04



     principal inertias of body
     i11 =     1.0775E-04
     i22 =     4.4515E-04
     i33 =     5.4576E-04

     principal directions
     row1=     9.9999E-01    -3.1619E-03     2.6831E-03
     row2=     3.1621E-03     9.9999E-01    -4.6167E-05
     row3=    -2.6830E-03     5.4650E-05     1.0000E+00

 ************************************************************



 dt of cycle   24026 is controlled by solid           3703 of part         2

 time...........................   2.19795E-05
 time step......................   1.02021E-09
 kinetic energy.................   1.82986E+06
 internal energy................   8.40943E+03
 spring and damper energy.......   1.60000E-19
 hourglass energy ..............   1.92139E+04
 system damping energy..........   0.00000E+00
 sliding interface energy.......   1.43280E+04
 external work..................   0.00000E+00
 eroded kinetic energy..........   8.68016E+05
 eroded internal energy.........   9.44450E+04
 eroded hourglass energy........   1.87375E+04
 total energy...................   1.87181E+06
 total energy / initial energy..   1.72234E+00
 energy ratio w/o eroded energy.   8.19494E-01
 global x velocity..............   2.31868E+06
 global y velocity..............  -1.43979E+02
 global z velocity..............  -1.24914E+04
 time per zone cycle.(nanosec)..           156

  m a s s   p r o p e r t i e s   o f   b o d y
     total mass of body          = 1.47751111E-07
     x-coordinate of mass center = 4.74629756E+01
     y-coordinate of mass center =-6.68802320E-02
     z-coordinate of mass center =-1.26657543E-01

     inertia tensor of body
     row1=     1.0784E-04    -1.0677E-06     1.1764E-06
     row2=    -1.0677E-06     4.4558E-04    -1.7645E-09
     row3=     1.1764E-06    -1.7645E-09     5.4627E-04



     principal inertias of body
     i11 =     1.0783E-04
     i22 =     4.4559E-04
     i33 =     5.4627E-04

     principal directions
     row1=     9.9999E-01    -3.1609E-03     2.6832E-03
     row2=     3.1611E-03     1.0000E+00    -4.5975E-05
     row3=    -2.6830E-03     5.4456E-05     1.0000E+00

 ************************************************************



 dt of cycle   24036 is controlled by solid           3703 of part         2

 time...........................   2.19897E-05
 time step......................   1.02022E-09
 kinetic energy.................   1.82986E+06
 internal energy................   8.40945E+03
 spring and damper energy.......   1.60000E-19
 hourglass energy ..............   1.92139E+04
 system damping energy..........   0.00000E+00
 sliding interface energy.......   1.43280E+04
 external work..................   0.00000E+00
 eroded kinetic energy..........   8.68016E+05
 eroded internal energy.........   9.44450E+04
 eroded hourglass energy........   1.87375E+04
 total energy...................   1.87181E+06
 total energy / initial energy..   1.72234E+00
 energy ratio w/o eroded energy.   8.19494E-01
 global x velocity..............   2.31868E+06
 global y velocity..............  -1.40069E+02
 global z velocity..............  -1.24914E+04
 time per zone cycle.(nanosec)..           149

  m a s s   p r o p e r t i e s   o f   b o d y
     total mass of body          = 1.47751111E-07
     x-coordinate of mass center = 4.74855741E+01
     y-coordinate of mass center =-6.68816160E-02
     z-coordinate of mass center =-1.26779288E-01

     inertia tensor of body
     row1=     1.0792E-04    -1.0685E-06     1.1775E-06
     row2=    -1.0685E-06     4.4602E-04    -1.7466E-09
     row3=     1.1775E-06    -1.7466E-09     5.4678E-04



     principal inertias of body
     i11 =     1.0791E-04
     i22 =     4.4602E-04
     i33 =     5.4679E-04

     principal directions
     row1=     9.9999E-01    -3.1600E-03     2.6832E-03
     row2=     3.1601E-03     1.0000E+00    -4.5783E-05
     row3=    -2.6830E-03     5.4262E-05     1.0000E+00

 ************************************************************



 dt of cycle   24045 is controlled by solid           3601 of part         2

 time...........................   2.19990E-05
 time step......................   1.04775E-09
 kinetic energy.................   1.82986E+06
 internal energy................   8.40946E+03
 spring and damper energy.......   1.60000E-19
 hourglass energy ..............   1.92139E+04
 system damping energy..........   0.00000E+00
 sliding interface energy.......   1.43280E+04
 external work..................   0.00000E+00
 eroded kinetic energy..........   8.68016E+05
 eroded internal energy.........   9.44450E+04
 eroded hourglass energy........   1.87375E+04
 total energy...................   1.87181E+06
 total energy / initial energy..   1.72234E+00
 energy ratio w/o eroded energy.   8.19494E-01
 global x velocity..............   2.31868E+06
 global y velocity..............  -1.36748E+02
 global z velocity..............  -1.24914E+04
 time per zone cycle.(nanosec)..           142

  m a s s   p r o p e r t i e s   o f   b o d y
     total mass of body          = 1.47751111E-07
     x-coordinate of mass center = 4.75062179E+01
     y-coordinate of mass center =-6.68828481E-02
     z-coordinate of mass center =-1.26890503E-01

     inertia tensor of body
     row1=     1.0800E-04    -1.0692E-06     1.1786E-06
     row2=    -1.0692E-06     4.4642E-04    -1.7302E-09
     row3=     1.1786E-06    -1.7302E-09     5.4725E-04



     principal inertias of body
     i11 =     1.0799E-04
     i22 =     4.4642E-04
     i33 =     5.4725E-04

     principal directions
     row1=     9.9999E-01    -3.1591E-03     2.6832E-03
     row2=     3.1592E-03     1.0000E+00    -4.5609E-05
     row3=    -2.6831E-03     5.4085E-05     1.0000E+00

 ************************************************************

