      Date: 04/08/2022      Time: 12:08:51  

     ___________________________________________________
     |                                                 |
     |  Livermore Software Technology, LLC             |
     |                                                 |
     |  7374 Las Positas Road                          |
     |  Livermore, CA 94551                            |
     |  Tel: (925) 449-2500  Fax: (925) 449-2507       |
     |  www.lstc.com                                   |
     |_________________________________________________|
     |                                                 |
     |  LS-DYNA, A Program for Nonlinear Dynamic       |
     |  Analysis of Structures in Three Dimensions     |
     |  Version : mpp d R12.0.0   Date: 06/19/2020     |
     |  Revision: 148931          Time: 17:26:40       |
     |                                                 |
     |  Features enabled in this version:              |
     |    Distributed Memory Parallel                  |
     |    CESE CHEMISTRY EM ICFD STOCHASTIC_PARTICLES  |
     |    FFTW (multi-dimensional FFTW Library)        |
     |    ANSYS License (ANSYS202)                     |
     |    BigID  option                                |
     |                                                 |
     |  Licensed to: Norwegian University of Science an|
     |  Issued by  : Pascale.SaneGuttin_02092022       |
     |                                                 |
     |  Platform   : Intel-MPI 2018 Xeon64             |
     |  OS Level   : Linux CentOS 6.5 uom              |
     |  Compiler   : Intel Fortran Compiler 16.0 AVX-2 |
     |  Hostname   : compute-0-3                       |
     |  Precision  : Double precision (I8R8)           |
     |  SVN Version: 148978                            |
     |                                                 |
     |  Unauthorized use infringes LST copyrights      |
     |_________________________________________________|


 Input file: DynaOpt.key                                                                     

 The native file format       : 64-bit small endian
 Memory size from default     :   100000000,            0
 Binary file                  : 32 bit IEEE selected
 d3dump option                : d3dump will be suppressed
 Memory size from default     :   100000000,    100000000

 Memory for the head node
 Memory installed (MB)        :       257787
 Memory available (MB)        :       221347

 ********  notice  ********  notice  ********  notice  ********
 *                                                            *
 * This is the LS-DYNA Finite Element code.                   *
 *                                                            *
 * Neither LST nor the authors assume any responsibility for  *
 * the validity, accuracy, or applicability of any results    *
 * obtained from this system. Users must verify their own     *
 * results.                                                   *
 *                                                            *
 * LST endeavors to make the LS-DYNA code as complete,        *
 * accurate and easy to use as possible.                      *
 * Suggestions and comments are welcomed.  Please report any  *
 * errors encountered in either the documentation or results  *
 * immediately to LST through your site focus.                *
 *                                                            *
 * Copyright (C) 1990-2020                                    *
 * by Livermore Software Technology, LLC                      *
 * All rights reserved                                        *
 *                                                            *
 ********  notice  ********  notice  ********  notice  ********
 
LSTC Environment Variables:
 
LSTC_BINARY=32ieee
LSTC_LICENSE_SERVER=129.241.89.45
LSTC_D3DUMP=off
LSTC_LICENSE=network
 

 Beginning of keyword reader                                   04/08/22 12:08:51
 allocating  memory to   100000000 d     1995258 beginning of keyword reader
 expanding   memory to      276428 d     2169558  
 expanding   memory to      306428 d     2169558  
 expanding   memory to      366428 d     2169558  
 expanding   memory to      386580 d     2169558  
 expanding   memory to      453468 d     2169558  
 expanding   memory to      504452 d     2169558  
 expanding   memory to      525452 d     2169558  
 expanding   memory to      590452 d     2169558  
 expanding   memory to      619604 d     2169558  
 expanding   memory to      736212 d     2169558  
 expanding   memory to      757254 d     2169558  

                                                               04/08/22 12:08:52
 Open include file: mesh_ball_target.key

                                                               04/08/22 12:08:52
 Open include file: mesh_wall.key
 expanding   memory to      786079 d     2169558  
 expanding   memory to      806079 d     2169558  
 expanding   memory to      826079 d     2169558  

********** echo of pfile data **********


*********** end of pfile data **********
 expanding   memory to      857549 d     2169558  
 expanding   memory to      885599 d     2169558  
 expanding   memory to     1194149 d     2169558  
 expanding   memory to     1222199 d     2169558  
 expanding   memory to     1245691 d     2451462  
 expanding   memory to     1327913 d     2451462  
 expanding   memory to     1421881 d     2451462  
 expanding   memory to     1551087 d     2451462  
 expanding   memory to     1602629 d     2451462  
 expanding   memory to     1627109 d     2451462  
 
 *** Warning 10138 (KEY+138)
     *SET_NODE Set number 5 is empty at 6th input
 expanding   memory to     1650309 d     2503018  
 expanding   memory to     1672309 d     2503018  
 expanding   memory to     1694309 d     2503018  
 expanding   memory to     1716309 d     2503018  
 expanding   memory to     1738309 d     2503018  
 expanding   memory to     1760309 d     2503018  
 expanding   memory to     1782309 d     2503018  
 expanding   memory to     1804309 d     2503018  
 expanding   memory to     1826309 d     2503018  
 expanding   memory to     1848309 d     2503018  
 expanding   memory to     1870309 d     2503018  
 expanding   memory to     1892309 d     2503018  
 expanding   memory to     1914309 d     2503018  
 expanding   memory to     1936309 d     2503018  
 expanding   memory to     1980895 d     2503018  
 expanding   memory to     2008981 d     2503018  
 expanding   memory to     2313374 d     2503018  

 Memory required to process keyword     :    2313374  
 Additional dynamic memory required     :    2592414  

 allocating  memory to   100000000 d     1823996 end of keyword reader

 MPP execution with       4 procs

 LS-DYNA will perform a structural only analysis 


 Initial reading of file                                       04/08/22 12:08:52
 LS-DYNA keyword deck by LS-PrePost                                      
                         ls-dyna mpp.148931 d           date 06/19/2020
 expanding   memory to        4305 d     1579236 material, node and element data
 expanding   memory to        4399 d     1579255 mat add general damage 0
 expanding   memory to        4459 d     1579255 material added airbag porosity leakage 
 expanding   memory to        4477 d     1579255 material properties
 expanding   memory to        4495 d     1749304 element data for composite material
 expanding   memory to        4510 d     3026313 gradient of damage data
 expanding   memory to        4676 d     3026322 user control for contact interfaces
 contracting memory to        4662 d     3026322 thermal expansion 0
 expanding   memory to        4668 d     3026322 state of charge expansion 0
 expanding   memory to        4670 d     3026322 cross-sectional force definitions 0
 expanding   memory to       44466 d     3026358 temp index array for node sorting
 contracting memory to        4670 d     3066158 just because?
 expanding   memory to       16416 d     3145768 arbitrary element numbering input
 contracting memory to        4690 d     3836000 spc cards
 contracting memory to        4677 d     3877488 process element material data
 expanding   memory to        6678 d     3877482 load curve data
 contracting memory to        4684 d     3877482 user_define_loading_set
 expanding   memory to        4884 d     3877482 regularize time history data
 contracting memory to        4688 d     3877482 *DEFINE_ELEMENT_DEATH
 expanding   memory to        4937 d     3960479 contact interfaces
 expanding   memory to       85529 d     3960479 implicit contact 1
 expanding   memory to      179323 d     3960479 implicit contact 2
 contracting memory to        4937 d     4101465 before call to elgen
 expanding   memory to        5937 d     4492383 contact segment data 1
 expanding   memory to      219293 d     4806441 contact segment data 3
 contracting memory to        4937 d     4635563 contact definition
 expanding   memory to        4991 d     4635564 rigid body
 expanding   memory to        4995 d     4636209 contact friction
 expanding   memory to        5085 d     4636209 joints
 expanding   memory to        7145 d     4636209 de sld2des
 expanding   memory to        7185 d     4706685 discrete elements regions
 expanding   memory to        7285 d     4707285 rigid bodies for disp. termination
 expanding   memory to        7291 d     8331542 mat add cohesive 0
 expanding   memory to        7297 d     8331542 flexible body 2

 Performing Decomposition -- Phase 1                           04/08/22 12:08:54
 expanding   memory to      166385 d     5397541 decomp scratch 1
 expanding   memory to      300150 d     5397541 decomp reverse connectivity
 expanding   memory to      422280 d     5397542 element ownership

Decomposition region 1:

   Part list

Decomposition region 2:

   Everything

Region  1 is distributed to 4 processors

   With no coordinate transformation

Region  2 is distributed to 4 processors

   With no coordinate transformation

Normalized element costs assigned during decomposition:
            Minumum: 9.997367E-01
            Maximum: 1.000088E+00
 Standard Deviation: 1.519935E-04

 contracting memory to      363439 d     5437342 constraint scratch
 contracting memory to      328313 d     5477138 con segment decomp rewrite 2
 expanding   memory to      363440 d     5477138 shadow node processing
 expanding   memory to      403241 d     5437342 share node processing
 contracting memory to      309963 d     5397550 nodal sharing list

 Memory required for decomposition      :     422280  
 Additional dynamic memory required     :    8732885  

 allocating  memory to   100000000 d     5291826 Allocate memory top of decomps
 expanding   memory to       11747 d     5291826 hex ownership chunk
 contracting memory to           7 d     5285958 material sort chunk
 expanding   memory to          19 d     5285958 material uid
 expanding   memory to          24 d     5298945 nodal force sharing lists 1

 Performing Decomposition -- Phase 2                           04/08/22 12:08:54
 expanding   memory to          30 d     5281815 mat scratch
 expanding   memory to          31 d     6350804 tied nodes scratch
 expanding   memory to          34 d     6350804 tied node scratch
 contracting memory to          30 d     6350804 nodal rigid body scratch
 expanding   memory to        1310 d     6350804 DES sld2des scratch
 expanding   memory to       19810 d     6350804 DES sld2des scratch
 contracting memory to        2462 d     6350804 DES sld2des scratch
 contracting memory to          30 d     6350804 spring/damper scratch
 contracting memory to           1 d     5341539 Performing Decomposition -- Phase 3
 Performing Decomposition -- Phase 3                           04/08/22 12:08:54
 LS-DYNA keyword deck by LS-PrePost                                      
                         ls-dyna mpp.148931 d           date 06/19/2020
 expanding   memory to        4305 d     5341539 material, node and element data
 expanding   memory to        4399 d     5341558 mat add general damage 0
 expanding   memory to        4459 d     5341558 material added airbag porosity leakage 
 expanding   memory to        4477 d     5341558 material properties
 expanding   memory to        4495 d     5381685 element data for composite material
 expanding   memory to        4510 d     5711168 gradient of damage data
 expanding   memory to       17776 d     5755261 user control for contact interfaces
 contracting memory to       17762 d     5755261 thermal expansion 0
 expanding   memory to       17768 d     5755261 state of charge expansion 0
 expanding   memory to       17770 d     5755261 cross-sectional force definitions 0
 expanding   memory to       27465 d     5755297 temp index array for node sorting
 contracting memory to       17770 d     5755297 just because?
 expanding   memory to       20709 d     5774705 arbitrary element numbering input
 contracting memory to       17790 d    30700376 spc cards
 contracting memory to       17777 d    30700376 d3thdt storage
 expanding   memory to       17778 d    30790334 process element material data
 expanding   memory to       19779 d    30790328 load curve data
 contracting memory to       17785 d    30790328 user_define_loading_set
 expanding   memory to       17985 d    30790328 regularize time history data
 contracting memory to       17789 d    30790328 *DEFINE_ELEMENT_DEATH
 expanding   memory to       17845 d    30809719 MPP copy of tim vector
 expanding   memory to       18094 d    30772754 contact interfaces
 expanding   memory to       38484 d    30772754 implicit contact 1
 expanding   memory to       61964 d    30772754 implicit contact 2
 contracting memory to       19094 d    31053915 contact segment data 1
 expanding   memory to       71691 d    31320252 contact segment data 3
 expanding   memory to      165659 d    31187731 read contacts, eroding check
 expanding   memory to      256855 d    31187731 eroding neighbors 2
 expanding   memory to      277429 d    31187731 eroding neighbors
 contracting memory to      112839 d    31625580 contact definition
 expanding   memory to      112845 d    31821176 contact history
 expanding   memory to      112899 d    31901916 rigid body
 expanding   memory to      112917 d    31901916 rbe2 scratch
 contracting memory to      112903 d    31965135 contact friction
 expanding   memory to      112993 d    31965141 joints
 expanding   memory to      115053 d    31965141 de sld2des
 expanding   memory to      115093 d    31973958 discrete elements regions
 expanding   memory to      115193 d    32194242 rigid bodies for disp. termination
 expanding   memory to      115571 d    32194242 save d3plot control data
 
 *** Warning 40859 (SOL+859)
     Cannot find elements of slave segment of interface 2
 deleted segment ID          n1          n2          n3          n4
       1 310000 310000 310000 310000
       2 310001 310001 310001 310001
       3 310002 310002 310002 310002
       4 310003 310003 310003 310003
       5 310004 310004 310004 310004
       6 310005 310005 310005 310005
       7 310006 310006 310006 310006
       8 310007 310007 310007 310007
       9 310008 310008 310008 310008
       10 310009 310009 310009 310009
       11 310010 310010 310010 310010
       12 310011 310011 310011 310011
       13 310012 310012 310012 310012
       14 310013 310013 310013 310013
       15 310014 310014 310014 310014
       16 310015 310015 310015 310015
       17 310016 310016 310016 310016
       18 310017 310017 310017 310017
       19 310018 310018 310018 310018
       20 310019 310019 310019 310019
       21 310020 310020 310020 310020
       22 310021 310021 310021 310021
       23 310022 310022 310022 310022
       24 310023 310023 310023 310023
       25 310024 310024 310024 310024
       26 310025 310025 310025 310025
       27 310026 310026 310026 310026
       28 310027 310027 310027 310027
       29 310028 310028 310028 310028
       30 310029 310029 310029 310029
       31 310030 310030 310030 310030
       32 310031 310031 310031 310031
       33 310032 310032 310032 310032
       34 310033 310033 310033 310033
       35 310034 310034 310034 310034
       36 310035 310035 310035 310035
       37 310036 310036 310036 310036
       38 310037 310037 310037 310037
       39 310038 310038 310038 310038
       40 310039 310039 310039 310039
       41 310040 310040 310040 310040
       42 310041 310041 310041 310041
       43 310042 310042 310042 310042
       44 310043 310043 310043 310043
       45 310044 310044 310044 310044
       46 310045 310045 310045 310045
       47 310046 310046 310046 310046
       48 310047 310047 310047 310047
       49 310048 310048 310048 310048
       50 310049 310049 310049 310049
       51 310050 310050 310050 310050
       52 310051 310051 310051 310051
       53 310052 310052 310052 310052
       54 310053 310053 310053 310053
       55 310054 310054 310054 310054
       56 310055 310055 310055 310055
       57 310056 310056 310056 310056
       58 310057 310057 310057 310057
       59 310058 310058 310058 310058
       60 310059 310059 310059 310059
       61 310060 310060 310060 310060
       62 310061 310061 310061 310061
       63 310062 310062 310062 310062
       64 310063 310063 310063 310063
       65 310064 310064 310064 310064
       66 310065 310065 310065 310065
       67 310066 310066 310066 310066
       68 310067 310067 310067 310067
       69 310068 310068 310068 310068
       70 310069 310069 310069 310069
       71 310070 310070 310070 310070
       72 310071 310071 310071 310071
       73 310072 310072 310072 310072
       74 310073 310073 310073 310073
       75 310074 310074 310074 310074
       76 310075 310075 310075 310075
       77 310076 310076 310076 310076
       78 310077 310077 310077 310077
       79 310078 310078 310078 310078
       80 310079 310079 310079 310079
       81 310080 310080 310080 310080
       82 310081 310081 310081 310081
       83 310082 310082 310082 310082
       84 310083 310083 310083 310083
       85 310084 310084 310084 310084
       86 310085 310085 310085 310085
       87 310086 310086 310086 310086
       88 310087 310087 310087 310087
       89 310088 310088 310088 310088
       90 310089 310089 310089 310089
       91 310090 310090 310090 310090
       92 310091 310091 310091 310091
       93 310092 310092 310092 310092
       94 310093 310093 310093 310093
       95 310094 310094 310094 310094
       96 310095 310095 310095 310095
       97 310096 310096 310096 310096
       98 310097 310097 310097 310097
       99 310098 310098 310098 310098
       100 310099 310099 310099 310099
       101 310100 310100 310100 310100
       102 310101 310101 310101 310101
       103 310102 310102 310102 310102
       104 310103 310103 310103 310103
       105 310104 310104 310104 310104
       106 310105 310105 310105 310105
       107 310106 310106 310106 310106
       108 310107 310107 310107 310107
       109 310108 310108 310108 310108
       110 310109 310109 310109 310109
       111 310110 310110 310110 310110
       112 310111 310111 310111 310111
       113 310112 310112 310112 310112
       114 310113 310113 310113 310113
       115 310114 310114 310114 310114
       116 310115 310115 310115 310115
       117 310116 310116 310116 310116
       118 310117 310117 310117 310117
       119 310118 310118 310118 310118
       120 310119 310119 310119 310119
       121 310120 310120 310120 310120
       122 310121 310121 310121 310121
       123 310122 310122 310122 310122
       124 310123 310123 310123 310123
       125 310124 310124 310124 310124
       126 310125 310125 310125 310125
       127 310126 310126 310126 310126
       128 310127 310127 310127 310127
       129 310128 310128 310128 310128
       130 310129 310129 310129 310129
       131 310130 310130 310130 310130
       132 310131 310131 310131 310131
       133 310132 310132 310132 310132
       134 310133 310133 310133 310133
       135 310134 310134 310134 310134
       136 310135 310135 310135 310135
       137 310136 310136 310136 310136
       138 310137 310137 310137 310137
       139 310138 310138 310138 310138
       140 310139 310139 310139 310139
       141 310140 310140 310140 310140
       142 310141 310141 310141 310141
       143 310142 310142 310142 310142
       144 310143 310143 310143 310143
       145 310144 310144 310144 310144
       146 310145 310145 310145 310145
       147 310146 310146 310146 310146
       148 310147 310147 310147 310147
       149 310148 310148 310148 310148
       150 310149 310149 310149 310149
       151 310150 310150 310150 310150
       152 310151 310151 310151 310151
       153 310152 310152 310152 310152
       154 310153 310153 310153 310153
       155 310154 310154 310154 310154
       156 310155 310155 310155 310155
       157 310156 310156 310156 310156
       158 310157 310157 310157 310157
       159 310158 310158 310158 310158
       160 310159 310159 310159 310159
       161 310160 310160 310160 310160
       162 310161 310161 310161 310161
       163 310162 310162 310162 310162
       164 310163 310163 310163 310163
       165 310164 310164 310164 310164
       166 310165 310165 310165 310165
       167 310166 310166 310166 310166
       168 310167 310167 310167 310167
       169 310168 310168 310168 310168
       170 310169 310169 310169 310169
       171 310170 310170 310170 310170
       172 310171 310171 310171 310171
       173 310172 310172 310172 310172
       174 310173 310173 310173 310173
       175 310174 310174 310174 310174
       176 310175 310175 310175 310175
       177 310176 310176 310176 310176
       178 310177 310177 310177 310177
       179 310178 310178 310178 310178
       180 310179 310179 310179 310179
       181 310180 310180 310180 310180
       182 310181 310181 310181 310181
       183 310182 310182 310182 310182
       184 310183 310183 310183 310183
       185 310184 310184 310184 310184
       186 310185 310185 310185 310185
       187 310186 310186 310186 310186
       188 310187 310187 310187 310187
       189 310188 310188 310188 310188
       190 310189 310189 310189 310189
       191 310190 310190 310190 310190
       192 310191 310191 310191 310191
       193 310192 310192 310192 310192
       194 310193 310193 310193 310193
       195 310194 310194 310194 310194
       196 310195 310195 310195 310195
       197 310196 310196 310196 310196
       198 310197 310197 310197 310197
       199 310198 310198 310198 310198
       200 310199 310199 310199 310199
       201 310200 310200 310200 310200
       202 310201 310201 310201 310201
       203 310202 310202 310202 310202
       204 310203 310203 310203 310203
       205 310204 310204 310204 310204
       206 310205 310205 310205 310205
       207 310206 310206 310206 310206
       208 310207 310207 310207 310207
       209 310208 310208 310208 310208
       210 310209 310209 310209 310209
       211 310210 310210 310210 310210
       212 310211 310211 310211 310211
       213 310212 310212 310212 310212
       214 310213 310213 310213 310213
       215 310214 310214 310214 310214
       216 310215 310215 310215 310215
       217 310216 310216 310216 310216
       218 310217 310217 310217 310217
       219 310218 310218 310218 310218
       220 310219 310219 310219 310219
       221 310220 310220 310220 310220
       222 310221 310221 310221 310221
       223 310222 310222 310222 310222
       224 310223 310223 310223 310223
       225 310224 310224 310224 310224
       226 310225 310225 310225 310225
       227 310226 310226 310226 310226
       228 310227 310227 310227 310227
       229 310228 310228 310228 310228
       230 310229 310229 310229 310229
       231 310230 310230 310230 310230
       232 310231 310231 310231 310231
       233 310232 310232 310232 310232
       234 310233 310233 310233 310233
       235 310234 310234 310234 310234
       236 310235 310235 310235 310235
       237 310236 310236 310236 310236
       238 310237 310237 310237 310237
       239 310238 310238 310238 310238
       240 310239 310239 310239 310239
       241 310240 310240 310240 310240
       242 310241 310241 310241 310241
       243 310242 310242 310242 310242
       244 310243 310243 310243 310243
       245 310244 310244 310244 310244
       246 310245 310245 310245 310245
       247 310246 310246 310246 310246
       248 310247 310247 310247 310247
       249 310248 310248 310248 310248
       250 310249 310249 310249 310249
       251 310250 310250 310250 310250
       252 310251 310251 310251 310251
       253 310252 310252 310252 310252
       254 310253 310253 310253 310253
       255 310254 310254 310254 310254
       256 310255 310255 310255 310255
       257 310256 310256 310256 310256
       258 310257 310257 310257 310257
       259 310258 310258 310258 310258
       260 310259 310259 310259 310259
       261 310260 310260 310260 310260
       262 310261 310261 310261 310261
       263 310262 310262 310262 310262
       264 310263 310263 310263 310263
       265 310264 310264 310264 310264
       266 310265 310265 310265 310265
       267 310266 310266 310266 310266
       268 310267 310267 310267 310267
       269 310268 310268 310268 310268
       270 310269 310269 310269 310269
       271 310270 310270 310270 310270
       272 310271 310271 310271 310271
       273 310272 310272 310272 310272
       274 310273 310273 310273 310273
       275 310274 310274 310274 310274
       276 310275 310275 310275 310275
       277 310276 310276 310276 310276
       278 310277 310277 310277 310277
       279 310278 310278 310278 310278
       280 310279 310279 310279 310279
       281 310280 310280 310280 310280
       282 310281 310281 310281 310281
       283 310282 310282 310282 310282
       284 310283 310283 310283 310283
       285 310284 310284 310284 310284
       286 310285 310285 310285 310285
       287 310286 310286 310286 310286
       288 310287 310287 310287 310287
       289 310288 310288 310288 310288
       290 310289 310289 310289 310289
       291 310290 310290 310290 310290
       292 310291 310291 310291 310291
       293 310292 310292 310292 310292
       294 310293 310293 310293 310293
       295 310294 310294 310294 310294
       296 310295 310295 310295 310295
       297 310296 310296 310296 310296
       298 310297 310297 310297 310297
       299 310298 310298 310298 310298
       300 310299 310299 310299 310299
       301 310300 310300 310300 310300
       302 310301 310301 310301 310301
       303 310302 310302 310302 310302
       304 310303 310303 310303 310303
       305 310304 310304 310304 310304
       306 310305 310305 310305 310305
       307 310306 310306 310306 310306
       308 310307 310307 310307 310307
       309 310308 310308 310308 310308
       310 310309 310309 310309 310309
       311 310310 310310 310310 310310
       312 310311 310311 310311 310311
       313 310312 310312 310312 310312
       314 310313 310313 310313 310313
       315 310314 310314 310314 310314
       316 310315 310315 310315 310315
       317 310316 310316 310316 310316
       318 310317 310317 310317 310317
       319 310318 310318 310318 310318
       320 310319 310319 310319 310319
       321 310320 310320 310320 310320
       322 310321 310321 310321 310321
       323 310322 310322 310322 310322
       324 310323 310323 310323 310323
       325 310324 310324 310324 310324
       326 310325 310325 310325 310325
       327 310326 310326 310326 310326
       328 310327 310327 310327 310327
       329 310328 310328 310328 310328
       330 310329 310329 310329 310329
       331 310330 310330 310330 310330
       332 310331 310331 310331 310331
       333 310332 310332 310332 310332
       334 310333 310333 310333 310333
       335 310334 310334 310334 310334
       336 310335 310335 310335 310335
       337 310336 310336 310336 310336
       338 310337 310337 310337 310337
       339 310338 310338 310338 310338
       340 310339 310339 310339 310339
       341 310340 310340 310340 310340
       342 310341 310341 310341 310341
       343 310342 310342 310342 310342
       344 310343 310343 310343 310343
       345 310344 310344 310344 310344
       346 310345 310345 310345 310345
       347 310346 310346 310346 310346
       348 310347 310347 310347 310347
       349 310348 310348 310348 310348
       350 310349 310349 310349 310349
       351 310350 310350 310350 310350
       352 310351 310351 310351 310351
       353 310352 310352 310352 310352
       354 310353 310353 310353 310353
       355 310354 310354 310354 310354
       356 310355 310355 310355 310355
       357 310356 310356 310356 310356
       358 310357 310357 310357 310357
       359 310358 310358 310358 310358
       360 310359 310359 310359 310359
       361 310360 310360 310360 310360
       362 310361 310361 310361 310361
       363 310362 310362 310362 310362
       364 310363 310363 310363 310363
       365 310364 310364 310364 310364
       366 310365 310365 310365 310365
       367 310366 310366 310366 310366
       368 310367 310367 310367 310367
       369 310368 310368 310368 310368
       370 310369 310369 310369 310369
       371 310370 310370 310370 310370
       372 310371 310371 310371 310371
       373 310372 310372 310372 310372
       374 310373 310373 310373 310373
       375 310374 310374 310374 310374
       376 310375 310375 310375 310375
       377 310376 310376 310376 310376
       378 310377 310377 310377 310377
       379 310378 310378 310378 310378
       380 310379 310379 310379 310379
       381 310380 310380 310380 310380
       382 310381 310381 310381 310381
       383 310382 310382 310382 310382
       384 310383 310383 310383 310383
       385 310384 310384 310384 310384
       386 310385 310385 310385 310385
       387 310386 310386 310386 310386
       388 310387 310387 310387 310387
       389 310388 310388 310388 310388
       390 310389 310389 310389 310389
       391 310390 310390 310390 310390
       392 310391 310391 310391 310391
       393 310392 310392 310392 310392
       394 310393 310393 310393 310393
       395 310394 310394 310394 310394
       396 310395 310395 310395 310395
       397 310396 310396 310396 310396
       398 310397 310397 310397 310397
       399 310398 310398 310398 310398
       400 310399 310399 310399 310399
       401 310400 310400 310400 310400
       402 310401 310401 310401 310401
       403 310402 310402 310402 310402
       404 310403 310403 310403 310403
       405 310404 310404 310404 310404
       406 310405 310405 310405 310405
       407 310406 310406 310406 310406
       408 310407 310407 310407 310407
       409 310408 310408 310408 310408
       410 310409 310409 310409 310409
       411 310410 310410 310410 310410
       412 310411 310411 310411 310411
       413 310412 310412 310412 310412
       414 310413 310413 310413 310413
       415 310414 310414 310414 310414
       416 310415 310415 310415 310415
       417 310416 310416 310416 310416
       418 310417 310417 310417 310417
       419 310418 310418 310418 310418
       420 310419 310419 310419 310419
       421 310420 310420 310420 310420
       422 310421 310421 310421 310421
       423 310422 310422 310422 310422
       424 310423 310423 310423 310423
       425 310424 310424 310424 310424
       426 310425 310425 310425 310425
       427 310426 310426 310426 310426
       428 310427 310427 310427 310427
       429 310428 310428 310428 310428
       430 310429 310429 310429 310429
       431 310430 310430 310430 310430
       432 310431 310431 310431 310431
       433 310432 310432 310432 310432
       434 310433 310433 310433 310433
       435 310434 310434 310434 310434
       436 310435 310435 310435 310435
       437 310436 310436 310436 310436
       438 310437 310437 310437 310437
       439 310438 310438 310438 310438
       440 310439 310439 310439 310439
       441 310440 310440 310440 310440
       442 310441 310441 310441 310441
       443 310442 310442 310442 310442
       444 310443 310443 310443 310443
       445 310444 310444 310444 310444
       446 310445 310445 310445 310445
       447 310446 310446 310446 310446
       448 310447 310447 310447 310447
       449 310448 310448 310448 310448
       450 310449 310449 310449 310449
       451 310450 310450 310450 310450
       452 310451 310451 310451 310451
       453 310452 310452 310452 310452
       454 310453 310453 310453 310453
       455 310454 310454 310454 310454
       456 310455 310455 310455 310455
       457 310456 310456 310456 310456
       458 310457 310457 310457 310457
       459 310458 310458 310458 310458
       460 310459 310459 310459 310459
       461 310460 310460 310460 310460
       462 310461 310461 310461 310461
       463 310462 310462 310462 310462
       464 310463 310463 310463 310463
       465 310464 310464 310464 310464
       466 310465 310465 310465 310465
       467 310466 310466 310466 310466
       468 310467 310467 310467 310467
       469 310468 310468 310468 310468
       470 310469 310469 310469 310469
       471 310470 310470 310470 310470
       472 310471 310471 310471 310471
       473 310472 310472 310472 310472
       474 310473 310473 310473 310473
       475 310474 310474 310474 310474
       476 310475 310475 310475 310475
       477 310476 310476 310476 310476
       478 310477 310477 310477 310477
       479 310478 310478 310478 310478
       480 310479 310479 310479 310479
       481 310480 310480 310480 310480
       482 310481 310481 310481 310481
       483 310482 310482 310482 310482
       484 310483 310483 310483 310483
       485 310484 310484 310484 310484
       486 310485 310485 310485 310485
       487 310486 310486 310486 310486
       488 310487 310487 310487 310487
       489 310488 310488 310488 310488
       490 310489 310489 310489 310489
       491 310490 310490 310490 310490
       492 310491 310491 310491 310491
       493 310492 310492 310492 310492
       494 310493 310493 310493 310493
       495 310494 310494 310494 310494
       496 310495 310495 310495 310495
       497 310496 310496 310496 310496
       498 310497 310497 310497 310497
       499 310498 310498 310498 310498
       500 310499 310499 310499 310499
       501 310500 310500 310500 310500
       502 310501 310501 310501 310501
       503 310502 310502 310502 310502
       504 310503 310503 310503 310503
       505 310504 310504 310504 310504
       506 310505 310505 310505 310505
       507 310506 310506 310506 310506
       508 310507 310507 310507 310507
       509 310508 310508 310508 310508
       510 310509 310509 310509 310509
       511 310510 310510 310510 310510
       512 310511 310511 310511 310511
       513 310512 310512 310512 310512
       514 310513 310513 310513 310513
       515 310514 310514 310514 310514
       516 310515 310515 310515 310515
       517 310516 310516 310516 310516
       518 310517 310517 310517 310517
       519 310518 310518 310518 310518
       520 310519 310519 310519 310519
       521 310520 310520 310520 310520
       522 310521 310521 310521 310521
       523 310522 310522 310522 310522
       524 310523 310523 310523 310523
       525 310524 310524 310524 310524
       526 310525 310525 310525 310525
       527 310526 310526 310526 310526
       528 310527 310527 310527 310527
       529 310528 310528 310528 310528
       530 310529 310529 310529 310529
       531 310530 310530 310530 310530
       532 310531 310531 310531 310531
       533 310532 310532 310532 310532
       534 310533 310533 310533 310533
       535 310534 310534 310534 310534
       536 310535 310535 310535 310535
       537 310536 310536 310536 310536
       538 310537 310537 310537 310537
       539 310538 310538 310538 310538
       540 310539 310539 310539 310539
       541 310540 310540 310540 310540
       542 310541 310541 310541 310541
       543 310542 310542 310542 310542
       544 310543 310543 310543 310543
       545 310544 310544 310544 310544
       546 310545 310545 310545 310545
       547 310546 310546 310546 310546
       548 310547 310547 310547 310547
       549 310548 310548 310548 310548
       550 310549 310549 310549 310549
       551 310550 310550 310550 310550
       552 310551 310551 310551 310551
       553 310552 310552 310552 310552
       554 310553 310553 310553 310553
       555 310554 310554 310554 310554
       556 310555 310555 310555 310555
       557 310556 310556 310556 310556
       558 310557 310557 310557 310557
       559 310558 310558 310558 310558
       560 310559 310559 310559 310559
       561 310560 310560 310560 310560
       562 310561 310561 310561 310561
       563 310562 310562 310562 310562
       564 310563 310563 310563 310563
       565 310564 310564 310564 310564
       566 310565 310565 310565 310565
       567 310566 310566 310566 310566
       568 310567 310567 310567 310567
       569 310568 310568 310568 310568
       570 310569 310569 310569 310569
       571 310570 310570 310570 310570
       572 310571 310571 310571 310571
       573 310572 310572 310572 310572
       574 310573 310573 310573 310573
       575 310574 310574 310574 310574
       576 310575 310575 310575 310575
       577 310576 310576 310576 310576
       578 310577 310577 310577 310577
       579 310578 310578 310578 310578
       580 310579 310579 310579 310579
       581 310580 310580 310580 310580
       582 310581 310581 310581 310581
       583 310582 310582 310582 310582
       584 310583 310583 310583 310583
       585 310584 310584 310584 310584
       586 310585 310585 310585 310585
       587 310586 310586 310586 310586
       588 310587 310587 310587 310587
       589 310588 310588 310588 310588
       590 310589 310589 310589 310589
       591 310590 310590 310590 310590
       592 310591 310591 310591 310591
       593 310592 310592 310592 310592
       594 310593 310593 310593 310593
       595 310594 310594 310594 310594
       596 310595 310595 310595 310595
       597 310596 310596 310596 310596
       598 310597 310597 310597 310597
       599 310598 310598 310598 310598
       600 310599 310599 310599 310599
       601 310600 310600 310600 310600
       602 310601 310601 310601 310601
       603 310602 310602 310602 310602
       604 310603 310603 310603 310603
       605 310604 310604 310604 310604
       606 310605 310605 310605 310605
       607 310606 310606 310606 310606
       608 310607 310607 310607 310607
       609 310608 310608 310608 310608
       610 310609 310609 310609 310609
       611 310610 310610 310610 310610
       612 310611 310611 310611 310611
       613 310612 310612 310612 310612
       614 310613 310613 310613 310613
       615 310614 310614 310614 310614
       616 310615 310615 310615 310615
       617 310616 310616 310616 310616
       618 310617 310617 310617 310617
       619 310618 310618 310618 310618
       620 310619 310619 310619 310619
       621 310620 310620 310620 310620
       622 310621 310621 310621 310621
       623 310622 310622 310622 310622
       624 310623 310623 310623 310623
       625 310624 310624 310624 310624
       626 310625 310625 310625 310625
       627 310626 310626 310626 310626
       628 310627 310627 310627 310627
       629 310628 310628 310628 310628
       630 310629 310629 310629 310629
       631 310630 310630 310630 310630
       632 310631 310631 310631 310631
       633 310632 310632 310632 310632
       634 310633 310633 310633 310633
       635 310634 310634 310634 310634
       636 310635 310635 310635 310635
       637 310636 310636 310636 310636
       638 310637 310637 310637 310637
       639 310638 310638 310638 310638
       640 310639 310639 310639 310639
       641 310641 310641 310641 310641
       642 310657 310657 310657 310657
       643 310673 310673 310673 310673
       644 310675 310675 310675 310675
       645 310677 310677 310677 310677
       646 310694 310694 310694 310694
       647 310710 310710 310710 310710
       648 310719 310719 310719 310719
       649 310736 310736 310736 310736
       650 310752 310752 310752 310752
       651 310755 310755 310755 310755
       652 310761 310761 310761 310761
       653 310762 310762 310762 310762
       654 310779 310779 310779 310779
       655 310795 310795 310795 310795
       656 310805 310805 310805 310805
       657 310822 310822 310822 310822
       658 310838 310838 310838 310838
       659 310847 310847 310847 310847
       660 310850 310850 310850 310850
       661 310851 310851 310851 310851
       662 310881 310881 310881 310881
       663 310905 310905 310905 310905
       664 310920 310920 310920 310920
       665 310944 310944 310944 310944
       666 310960 310960 310960 310960
       667 310982 310982 310982 310982
       668 310998 310998 310998 310998
       669 311021 311021 311021 311021
       670 311022 311022 311022 311022
       671 311037 311037 311037 311037
       672 311040 311040 311040 311040
       673 311064 311064 311064 311064
       674 311065 311065 311065 311065
       675 311080 311080 311080 311080
       676 311100 311100 311100 311100
       677 311101 311101 311101 311101
       678 311116 311116 311116 311116
       679 311139 311139 311139 311139
       680 311140 311140 311140 311140
       681 311155 311155 311155 311155
       682 311177 311177 311177 311177
       683 311178 311178 311178 311178
       684 311180 311180 311180 311180
       685 311193 311193 311193 311193
       686 311215 311215 311215 311215
       687 311216 311216 311216 311216
       688 311218 311218 311218 311218
       689 311231 311231 311231 311231
       690 311250 311250 311250 311250
       691 311251 311251 311251 311251
       692 311253 311253 311253 311253
       693 311266 311266 311266 311266
       694 311272 311272 311272 311272
       695 311275 311275 311275 311275
       696 311277 311277 311277 311277
       697 311294 311294 311294 311294
       698 311295 311295 311295 311295
       699 311297 311297 311297 311297
       700 311310 311310 311310 311310
       701 311314 311314 311314 311314
       702 311318 311318 311318 311318
       703 311320 311320 311320 311320
       704 311337 311337 311337 311337
       705 311338 311338 311338 311338
       706 311352 311352 311352 311352
       707 311357 311357 311357 311357
       708 311360 311360 311360 311360
       709 311361 311361 311361 311361
       710 311363 311363 311363 311363
       711 311364 311364 311364 311364
       712 311380 311380 311380 311380
       713 311381 311381 311381 311381
       714 311396 311396 311396 311396
       715 311403 311403 311403 311403
       716 311404 311404 311404 311404
       717 311406 311406 311406 311406
       718 311423 311423 311423 311423
       719 311439 311439 311439 311439
       720 311446 311446 311446 311446
       721 311463 311463 311463 311463
       722 311479 311479 311479 311479
       723 311485 311485 311485 311485
       724 311501 311501 311501 311501
       725 311517 311517 311517 311517
       726 311522 311522 311522 311522
       727 311524 311524 311524 311524
       728 311540 311540 311540 311540
       729 311556 311556 311556 311556
       730 311560 311560 311560 311560
       731 311563 311563 311563 311563
       732 311580 311580 311580 311580
       733 311596 311596 311596 311596
       734 311600 311600 311600 311600
       735 311617 311617 311617 311617
       736 311633 311633 311633 311633
       737 311637 311637 311637 311637
       738 311654 311654 311654 311654
       739 311670 311670 311670 311670
       740 311678 311678 311678 311678
       741 311694 311694 311694 311694
       742 311710 311710 311710 311710
       743 311717 311717 311717 311717
       744 311733 311733 311733 311733
       745 311749 311749 311749 311749
       746 311752 311752 311752 311752
       747 311753 311753 311753 311753
       748 311756 311756 311756 311756
       749 311757 311757 311757 311757
       750 311774 311774 311774 311774
       751 311790 311790 311790 311790
       752 311798 311798 311798 311798
       753 311814 311814 311814 311814
       754 311830 311830 311830 311830
       755 311836 311836 311836 311836
       756 311837 311837 311837 311837
       757 311868 311868 311868 311868
       758 311873 311873 311873 311873
       759 311874 311874 311874 311874
       760 311890 311890 311890 311890
       761 311907 311907 311907 311907
       762 311913 311913 311913 311913
       763 311915 311915 311915 311915
       764 311931 311931 311931 311931
       765 311948 311948 311948 311948
       766 311951 311951 311951 311951
       767 311954 311954 311954 311954
       768 311969 311969 311969 311969
       769 311986 311986 311986 311986
       770 311994 311994 311994 311994
       771 312010 312010 312010 312010
       772 312026 312026 312026 312026
       773 312033 312033 312033 312033
       774 312036 312036 312036 312036
       775 312051 312051 312051 312051
       776 312067 312067 312067 312067
       777 312073 312073 312073 312073
       778 312088 312088 312088 312088
       779 312105 312105 312105 312105
       780 312111 312111 312111 312111
       781 312127 312127 312127 312127
       782 312144 312144 312144 312144
       783 312151 312151 312151 312151
       784 312154 312154 312154 312154
       785 312170 312170 312170 312170
       786 312187 312187 312187 312187
       787 312195 312195 312195 312195
       788 312211 312211 312211 312211
       789 312228 312228 312228 312228
       790 312233 312233 312233 312233
       791 312249 312249 312249 312249
       792 312265 312265 312265 312265
       793 312271 312271 312271 312271
       794 312286 312286 312286 312286
       795 312302 312302 312302 312302
       796 312307 312307 312307 312307
       797 312322 312322 312322 312322
       798 312340 312340 312340 312340
       799 312344 312344 312344 312344
       800 312361 312361 312361 312361
       801 312377 312377 312377 312377
       802 312382 312382 312382 312382
       803 312396 312396 312396 312396
       804 312414 312414 312414 312414
       805 312417 312417 312417 312417
       806 312419 312419 312419 312419
       807 312434 312434 312434 312434
       808 312451 312451 312451 312451
       809 312456 312456 312456 312456
       810 312472 312472 312472 312472
       811 312489 312489 312489 312489
       812 312492 312492 312492 312492
       813 312495 312495 312495 312495
       814 312510 312510 312510 312510
       815 312527 312527 312527 312527
       816 312531 312531 312531 312531
       817 312532 312532 312532 312532
       818 312548 312548 312548 312548
       819 312565 312565 312565 312565
       820 312569 312569 312569 312569
       821 312573 312573 312573 312573
       822 312589 312589 312589 312589
       823 312606 312606 312606 312606
       824 312614 312614 312614 312614
       825 312630 312630 312630 312630
       826 312646 312646 312646 312646
       827 312652 312652 312652 312652
       828 312668 312668 312668 312668
       829 312685 312685 312685 312685
       830 312689 312689 312689 312689
       831 312692 312692 312692 312692
       832 312708 312708 312708 312708
       833 312725 312725 312725 312725
       834 312745 312745 312745 312745
       835 312761 312761 312761 312761
       836 312781 312781 312781 312781
       837 312797 312797 312797 312797
       838 312818 312818 312818 312818
       839 312834 312834 312834 312834
       840 312854 312854 312854 312854
       841 312870 312870 312870 312870
       842 312874 312874 312874 312874
       843 312893 312893 312893 312893
       844 312909 312909 312909 312909
       845 312912 312912 312912 312912
       846 312928 312928 312928 312928
       847 312944 312944 312944 312944
       848 312950 312950 312950 312950
       849 312951 312951 312951 312951
       850 312969 312969 312969 312969
       851 312985 312985 312985 312985
       852 313005 313005 313005 313005
       853 313020 313020 313020 313020
       854 313043 313043 313043 313043
       855 313059 313059 313059 313059
       856 313080 313080 313080 313080
       857 313096 313096 313096 313096
       858 313112 313112 313112 313112
       859 313117 313117 313117 313117
       860 313133 313133 313133 313133
       861 313151 313151 313151 313151
       862 313156 313156 313156 313156
       863 313172 313172 313172 313172
       864 313187 313187 313187 313187
       865 313194 313194 313194 313194
       866 313210 313210 313210 313210
       867 313224 313224 313224 313224
       868 313229 313229 313229 313229
       869 313245 313245 313245 313245
       870 313259 313259 313259 313259
       871 313264 313264 313264 313264
       872 313280 313280 313280 313280
       873 313283 313283 313283 313283
       874 313284 313284 313284 313284
       875 313285 313285 313285 313285
       876 313292 313292 313292 313292
       877 313298 313298 313298 313298
       878 313303 313303 313303 313303
       879 313319 313319 313319 313319
       880 313329 313329 313329 313329
       881 313335 313335 313335 313335
       882 313340 313340 313340 313340
       883 313356 313356 313356 313356
       884 313360 313360 313360 313360
       885 313372 313372 313372 313372
       886 313377 313377 313377 313377
       887 313393 313393 313393 313393
       888 313399 313399 313399 313399
       889 313413 313413 313413 313413
       890 313418 313418 313418 313418
       891 313434 313434 313434 313434
       892 313450 313450 313450 313450
       893 313455 313455 313455 313455
       894 313471 313471 313471 313471
       895 313489 313489 313489 313489
       896 313494 313494 313494 313494
       897 313510 313510 313510 313510
       898 313529 313529 313529 313529
       899 313534 313534 313534 313534
       900 313550 313550 313550 313550
       901 313568 313568 313568 313568
       902 313573 313573 313573 313573
       903 313589 313589 313589 313589
       904 313606 313606 313606 313606
       905 313611 313611 313611 313611
       906 313627 313627 313627 313627
       907 313645 313645 313645 313645
       908 313650 313650 313650 313650
       909 313666 313666 313666 313666
       910 313683 313683 313683 313683
       911 313688 313688 313688 313688
       912 313703 313703 313703 313703
       913 313709 313709 313709 313709
       914 313724 313724 313724 313724
       915 313729 313729 313729 313729
       916 313745 313745 313745 313745
       917 313764 313764 313764 313764
       918 313769 313769 313769 313769
       919 313784 313784 313784 313784
       920 313802 313802 313802 313802
       921 313807 313807 313807 313807
       922 313822 313822 313822 313822
       923 313828 313828 313828 313828
       924 313840 313840 313840 313840
       925 313845 313845 313845 313845
       926 313846 313846 313846 313846
       927 313861 313861 313861 313861
       928 313865 313865 313865 313865
       929 313872 313872 313872 313872
       930 313882 313882 313882 313882
       931 313887 313887 313887 313887
       932 313888 313888 313888 313888
       933 313903 313903 313903 313903
       934 313912 313912 313912 313912
       935 313924 313924 313924 313924
       936 313929 313929 313929 313929
       937 313930 313930 313930 313930
       938 313945 313945 313945 313945
       939 313953 313953 313953 313953
       940 313963 313963 313963 313963
       941 313968 313968 313968 313968
       942 313969 313969 313969 313969
       943 313984 313984 313984 313984
       944 313990 313990 313990 313990
       945 314002 314002 314002 314002
       946 314007 314007 314007 314007
       947 314008 314008 314008 314008
       948 314023 314023 314023 314023
       949 314027 314027 314027 314027
       950 314031 314031 314031 314031
       951 314043 314043 314043 314043
       952 314048 314048 314048 314048
       953 314049 314049 314049 314049
       954 314064 314064 314064 314064
       955 314074 314074 314074 314074
       956 314085 314085 314085 314085
       957 314090 314090 314090 314090
       958 314091 314091 314091 314091
       959 314105 314105 314105 314105
       960 314114 314114 314114 314114
       961 314126 314126 314126 314126
       962 314131 314131 314131 314131
       963 314132 314132 314132 314132
       964 314133 314133 314133 314133
       965 314147 314147 314147 314147
       966 314155 314155 314155 314155
       967 314167 314167 314167 314167
       968 314172 314172 314172 314172
       969 314173 314173 314173 314173
       970 314174 314174 314174 314174
       971 314188 314188 314188 314188
       972 314195 314195 314195 314195
       973 314206 314206 314206 314206
       974 314210 314210 314210 314210
       975 314211 314211 314211 314211
       976 314212 314212 314212 314212
       977 314226 314226 314226 314226
       978 314230 314230 314230 314230
       979 314234 314234 314234 314234
       980 314245 314245 314245 314245
       981 314249 314249 314249 314249
       982 314250 314250 314250 314250
       983 314251 314251 314251 314251
       984 314265 314265 314265 314265
       985 314268 314268 314268 314268
       986 314270 314270 314270 314270
       987 314271 314271 314271 314271
       988 314283 314283 314283 314283
       989 314288 314288 314288 314288
       990 314289 314289 314289 314289
       991 314290 314290 314290 314290
       992 314304 314304 314304 314304
       993 314312 314312 314312 314312
       994 314323 314323 314323 314323
       995 314327 314327 314327 314327
       996 314328 314328 314328 314328
       997 314343 314343 314343 314343
       998 314348 314348 314348 314348
       999 314360 314360 314360 314360
       1000 314365 314365 314365 314365
       1001 314366 314366 314366 314366
       1002 314381 314381 314381 314381
       1003 314389 314389 314389 314389
       1004 314400 314400 314400 314400
       1005 314405 314405 314405 314405
       1006 314406 314406 314406 314406
       1007 314421 314421 314421 314421
       1008 314427 314427 314427 314427
       1009 314438 314438 314438 314438
       1010 314443 314443 314443 314443
       1011 314444 314444 314444 314444
       1012 314458 314458 314458 314458
       1013 314465 314465 314465 314465
       1014 314475 314475 314475 314475
       1015 314480 314480 314480 314480
       1016 314481 314481 314481 314481
       1017 314496 314496 314496 314496
       1018 314499 314499 314499 314499
       1019 314506 314506 314506 314506
       1020 314517 314517 314517 314517
       1021 314522 314522 314522 314522
       1022 314523 314523 314523 314523
       1023 314538 314538 314538 314538
       1024 314547 314547 314547 314547
       1025 314559 314559 314559 314559
       1026 314564 314564 314564 314564
       1027 314565 314565 314565 314565
       1028 314580 314580 314580 314580
       1029 314586 314586 314586 314586
       1030 314598 314598 314598 314598
       1031 314603 314603 314603 314603
       1032 314604 314604 314604 314604
       1033 314619 314619 314619 314619
       1034 314625 314625 314625 314625
       1035 314637 314637 314637 314637
       1036 314642 314642 314642 314642
       1037 314643 314643 314643 314643
       1038 314658 314658 314658 314658
       1039 314662 314662 314662 314662
       1040 314674 314674 314674 314674
       1041 314679 314679 314679 314679
       1042 314680 314680 314680 314680
       1043 314695 314695 314695 314695
       1044 314702 314702 314702 314702
       1045 314713 314713 314713 314713
       1046 314718 314718 314718 314718
       1047 314719 314719 314719 314719
       1048 314734 314734 314734 314734
       1049 314741 314741 314741 314741
       1050 314751 314751 314751 314751
       1051 314755 314755 314755 314755
       1052 314756 314756 314756 314756
       1053 314771 314771 314771 314771
       1054 314776 314776 314776 314776
       1055 314788 314788 314788 314788
       1056 314793 314793 314793 314793
       1057 314794 314794 314794 314794
       1058 314809 314809 314809 314809
       1059 314815 314815 314815 314815
       1060 314827 314827 314827 314827
       1061 314832 314832 314832 314832
       1062 314833 314833 314833 314833
       1063 314848 314848 314848 314848
       1064 314856 314856 314856 314856
       1065 314868 314868 314868 314868
       1066 314873 314873 314873 314873
       1067 314874 314874 314874 314874
       1068 314889 314889 314889 314889
       1069 314897 314897 314897 314897
       1070 314900 314900 314900 314900
       1071 314912 314912 314912 314912
       1072 314917 314917 314917 314917
       1073 314918 314918 314918 314918
       1074 314933 314933 314933 314933
       1075 314936 314936 314936 314936
       1076 314940 314940 314940 314940
       1077 314952 314952 314952 314952
       1078 314957 314957 314957 314957
       1079 314958 314958 314958 314958
       1080 314973 314973 314973 314973
       1081 314980 314980 314980 314980
       1082 314992 314992 314992 314992
       1083 314997 314997 314997 314997
       1084 315012 315012 315012 315012
       1085 315016 315016 315016 315016
       1086 315021 315021 315021 315021
       1087 315033 315033 315033 315033
       1088 315038 315038 315038 315038
       1089 315053 315053 315053 315053
       1090 315056 315056 315056 315056
       1091 315057 315057 315057 315057
       1092 315061 315061 315061 315061
       1093 315073 315073 315073 315073
       1094 315078 315078 315078 315078
       1095 315093 315093 315093 315093
       1096 315097 315097 315097 315097
       1097 315104 315104 315104 315104
       1098 315115 315115 315115 315115
       1099 315120 315120 315120 315120
       1100 315135 315135 315135 315135
       1101 315141 315141 315141 315141
       1102 315153 315153 315153 315153
       1103 315158 315158 315158 315158
       1104 315159 315159 315159 315159
       1105 315174 315174 315174 315174
       1106 315180 315180 315180 315180
       1107 315184 315184 315184 315184
       1108 315196 315196 315196 315196
       1109 315199 315199 315199 315199
       1110 315200 315200 315200 315200
       1111 315214 315214 315214 315214
       1112 315222 315222 315222 315222
       1113 315234 315234 315234 315234
       1114 315239 315239 315239 315239
       1115 315240 315240 315240 315240
       1116 315254 315254 315254 315254
       1117 315275 315275 315275 315275
       1118 315290 315290 315290 315290
       1119 315310 315310 315310 315310
       1120 315314 315314 315314 315314
       1121 315315 315315 315315 315315
       1122 315330 315330 315330 315330
       1123 315333 315333 315333 315333
       1124 315349 315349 315349 315349
       1125 315353 315353 315353 315353
       1126 315354 315354 315354 315354
       1127 315369 315369 315369 315369
       1128 315385 315385 315385 315385
       1129 315387 315387 315387 315387
       1130 315389 315389 315389 315389
       1131 315405 315405 315405 315405
       1132 315408 315408 315408 315408
       1133 315409 315409 315409 315409
       1134 315423 315423 315423 315423
       1135 315427 315427 315427 315427
       1136 315428 315428 315428 315428
       1137 315443 315443 315443 315443
       1138 315460 315460 315460 315460
       1139 315464 315464 315464 315464
       1140 315465 315465 315465 315465
       1141 315481 315481 315481 315481
       1142 315498 315498 315498 315498
       1143 315503 315503 315503 315503
       1144 315504 315504 315504 315504
       1145 315518 315518 315518 315518
       1146 315522 315522 315522 315522
       1147 315535 315535 315535 315535
       1148 315539 315539 315539 315539
       1149 315540 315540 315540 315540
       1150 315556 315556 315556 315556
       1151 315572 315572 315572 315572
       1152 315577 315577 315577 315577
       1153 315578 315578 315578 315578
       1154 315593 315593 315593 315593
       1155 315612 315612 315612 315612
       1156 315616 315616 315616 315616
       1157 315617 315617 315617 315617
       1158 315632 315632 315632 315632
       1159 315647 315647 315647 315647
       1160 315650 315650 315650 315650
       1161 315652 315652 315652 315652
       1162 315668 315668 315668 315668
       1163 315685 315685 315685 315685
       1164 315689 315689 315689 315689
       1165 315690 315690 315690 315690
       1166 315705 315705 315705 315705
       1167 315708 315708 315708 315708
       1168 315709 315709 315709 315709
       1169 315713 315713 315713 315713
       1170 315724 315724 315724 315724
       1171 315729 315729 315729 315729
       1172 315730 315730 315730 315730
       1173 315745 315745 315745 315745
       1174 315764 315764 315764 315764
       1175 315766 315766 315766 315766
       1176 315781 315781 315781 315781
       1177 315805 315805 315805 315805
       1178 315806 315806 315806 315806
       1179 315821 315821 315821 315821
       1180 315845 315845 315845 315845
       1181 315846 315846 315846 315846
       1182 315861 315861 315861 315861
       1183 315865 315865 315865 315865
       1184 315887 315887 315887 315887
       1185 315888 315888 315888 315888
       1186 315902 315902 315902 315902
       1187 315926 315926 315926 315926
       1188 315927 315927 315927 315927
       1189 315942 315942 315942 315942
       1190 315966 315966 315966 315966
       1191 315968 315968 315968 315968
       1192 315983 315983 315983 315983
       1193 316008 316008 316008 316008
       1194 316009 316009 316009 316009
       1195 316024 316024 316024 316024
       1196 316047 316047 316047 316047
       1197 316048 316048 316048 316048
       1198 316063 316063 316063 316063
       1199 316083 316083 316083 316083
       1200 316085 316085 316085 316085
       1201 316101 316101 316101 316101
       1202 316124 316124 316124 316124
       1203 316125 316125 316125 316125
       1204 316140 316140 316140 316140
       1205 316162 316162 316162 316162
       1206 316163 316163 316163 316163
       1207 316179 316179 316179 316179
       1208 316185 316185 316185 316185
       1209 316202 316202 316202 316202
       1210 316203 316203 316203 316203
       1211 316218 316218 316218 316218
       1212 316227 316227 316227 316227
       1213 316242 316242 316242 316242
       1214 316243 316243 316243 316243
       1215 316259 316259 316259 316259
       1216 316265 316265 316265 316265
       1217 316267 316267 316267 316267
       1218 316284 316284 316284 316284
       1219 316285 316285 316285 316285
       1220 316300 316300 316300 316300
       1221 316303 316303 316303 316303
       1222 316308 316308 316308 316308
       1223 316325 316325 316325 316325
       1224 316326 316326 316326 316326
       1225 316341 316341 316341 316341
       1226 316347 316347 316347 316347
       1227 316350 316350 316350 316350
       1228 316365 316365 316365 316365
       1229 316367 316367 316367 316367
       1230 316383 316383 316383 316383
       1231 316386 316386 316386 316386
       1232 316390 316390 316390 316390
       1233 316407 316407 316407 316407
       1234 316408 316408 316408 316408
       1235 316423 316423 316423 316423
       1236 316432 316432 316432 316432
       1237 316448 316448 316448 316448
       1238 316449 316449 316449 316449
       1239 316464 316464 316464 316464
       1240 316472 316472 316472 316472
       1241 316474 316474 316474 316474
       1242 316489 316489 316489 316489
       1243 316491 316491 316491 316491
       1244 316507 316507 316507 316507
       1245 316513 316513 316513 316513
       1246 316530 316530 316530 316530
       1247 316531 316531 316531 316531
       1248 316545 316545 316545 316545
       1249 316551 316551 316551 316551
       1250 316566 316566 316566 316566
       1251 316567 316567 316567 316567
       1252 316582 316582 316582 316582
       1253 316587 316587 316587 316587
       1254 316604 316604 316604 316604
       1255 316605 316605 316605 316605
       1256 316620 316620 316620 316620
       1257 316628 316628 316628 316628
       1258 316644 316644 316644 316644
       1259 316645 316645 316645 316645
       1260 316660 316660 316660 316660
       1261 316666 316666 316666 316666
       1262 316683 316683 316683 316683
       1263 316684 316684 316684 316684
       1264 316699 316699 316699 316699
       1265 316704 316704 316704 316704
       1266 316721 316721 316721 316721
       1267 316722 316722 316722 316722
       1268 316737 316737 316737 316737
       1269 316744 316744 316744 316744
       1270 316754 316754 316754 316754
       1271 316760 316760 316760 316760
       1272 316776 316776 316776 316776
       1273 316783 316783 316783 316783
       1274 316792 316792 316792 316792
       1275 316800 316800 316800 316800
       1276 316801 316801 316801 316801
       1277 316816 316816 316816 316816
       1278 316823 316823 316823 316823
       1279 316832 316832 316832 316832
       1280 316840 316840 316840 316840
       1281 316841 316841 316841 316841
       1282 316856 316856 316856 316856
       1283 316860 316860 316860 316860
       1284 316874 316874 316874 316874
       1285 316876 316876 316876 316876
       1286 316881 316881 316881 316881
       1287 316882 316882 316882 316882
       1288 316897 316897 316897 316897
       1289 316900 316900 316900 316900
       1290 316901 316901 316901 316901
       1291 316912 316912 316912 316912
       1292 316920 316920 316920 316920
       1293 316935 316935 316935 316935
       1294 316948 316948 316948 316948
       1295 316956 316956 316956 316956
       1296 316957 316957 316957 316957
       1297 316972 316972 316972 316972
       1298 316987 316987 316987 316987
       1299 316995 316995 316995 316995
       1300 316996 316996 316996 316996
       1301 317011 317011 317011 317011
       1302 317027 317027 317027 317027
       1303 317029 317029 317029 317029
       1304 317050 317050 317050 317050
       1305 317057 317057 317057 317057
       1306 317064 317064 317064 317064
       1307 317072 317072 317072 317072
       1308 317087 317087 317087 317087
       1309 317090 317090 317090 317090
       1310 317095 317095 317095 317095
       1311 317103 317103 317103 317103
       1312 317108 317108 317108 317108
       1313 317111 317111 317111 317111
       1314 317126 317126 317126 317126
       1315 317132 317132 317132 317132
       1316 317140 317140 317140 317140
       1317 317146 317146 317146 317146
       1318 317163 317163 317163 317163
       1319 317171 317171 317171 317171
       1320 317179 317179 317179 317179
       1321 317187 317187 317187 317187
       1322 317188 317188 317188 317188
       1323 317202 317202 317202 317202
       1324 317208 317208 317208 317208
       1325 317224 317224 317224 317224
       1326 317225 317225 317225 317225
       1327 317239 317239 317239 317239
       1328 317250 317250 317250 317250
       1329 317262 317262 317262 317262
       1330 317280 317280 317280 317280
       1331 317285 317285 317285 317285
       1332 317296 317296 317296 317296
       1333 317302 317302 317302 317302
       1334 317317 317317 317317 317317
       1335 317324 317324 317324 317324
       1336 317330 317330 317330 317330
       1337 317340 317340 317340 317340
       1338 317354 317354 317354 317354
       1339 317360 317360 317360 317360
       1340 317367 317367 317367 317367
       1341 317376 317376 317376 317376
       1342 317391 317391 317391 317391
       1343 317396 317396 317396 317396
       1344 317404 317404 317404 317404
       1345 317413 317413 317413 317413
       1346 317428 317428 317428 317428
       1347 317433 317433 317433 317433
       1348 317441 317441 317441 317441
       1349 317450 317450 317450 317450
       1350 317465 317465 317465 317465
       1351 317471 317471 317471 317471
       1352 317478 317478 317478 317478
       1353 317481 317481 317481 317481
       1354 317502 317502 317502 317502
       1355 317509 317509 317509 317509
       1356 317517 317517 317517 317517
       1357 317526 317526 317526 317526
       1358 317541 317541 317541 317541
       1359 317545 317545 317545 317545
       1360 317548 317548 317548 317548
       1361 317556 317556 317556 317556
       1362 317564 317564 317564 317564
       1363 317578 317578 317578 317578
       1364 317585 317585 317585 317585
       1365 317600 317600 317600 317600
       1366 317615 317615 317615 317615
       1367 317621 317621 317621 317621
       1368 317638 317638 317638 317638
       1369 317653 317653 317653 317653
       1370 317654 317654 317654 317654
       1371 317660 317660 317660 317660
       1372 317662 317662 317662 317662
       1373 317679 317679 317679 317679
       1374 317694 317694 317694 317694
       1375 317695 317695 317695 317695
       1376 317700 317700 317700 317700
       1377 317701 317701 317701 317701
       1378 317712 317712 317712 317712
       1379 317732 317732 317732 317732
       1380 317733 317733 317733 317733
       1381 317739 317739 317739 317739
       1382 317755 317755 317755 317755
       1383 317770 317770 317770 317770
       1384 317771 317771 317771 317771
       1385 317776 317776 317776 317776
       1386 317778 317778 317778 317778
       1387 317792 317792 317792 317792
       1388 317807 317807 317807 317807
       1389 317814 317814 317814 317814
       1390 317820 317820 317820 317820
       1391 317826 317826 317826 317826
       1392 317844 317844 317844 317844
       1393 317845 317845 317845 317845
       1394 317852 317852 317852 317852
       1395 317860 317860 317860 317860
       1396 317869 317869 317869 317869
       1397 317884 317884 317884 317884
       1398 317888 317888 317888 317888
       1399 317890 317890 317890 317890
       1400 317904 317904 317904 317904
       1401 317919 317919 317919 317919
       1402 317925 317925 317925 317925
       1403 317938 317938 317938 317938
       1404 317954 317954 317954 317954
       1405 317956 317956 317956 317956
       1406 317965 317965 317965 317965
       1407 317981 317981 317981 317981
       1408 317996 317996 317996 317996
       1409 318003 318003 318003 318003
       1410 318020 318020 318020 318020
       1411 318035 318035 318035 318035
       1412 318036 318036 318036 318036
       1413 318041 318041 318041 318041
       1414 318058 318058 318058 318058
       1415 318073 318073 318073 318073
       1416 318074 318074 318074 318074
       1417 318081 318081 318081 318081
       1418 318098 318098 318098 318098
       1419 318113 318113 318113 318113
       1420 318114 318114 318114 318114
       1421 318120 318120 318120 318120
       1422 318137 318137 318137 318137
       1423 318152 318152 318152 318152
       1424 318153 318153 318153 318153
       1425 318159 318159 318159 318159
       1426 318160 318160 318160 318160
       1427 318177 318177 318177 318177
       1428 318192 318192 318192 318192
       1429 318193 318193 318193 318193
       1430 318216 318216 318216 318216
       1431 318231 318231 318231 318231
       1432 318232 318232 318232 318232
       1433 318236 318236 318236 318236
       1434 318253 318253 318253 318253
       1435 318268 318268 318268 318268
       1436 318269 318269 318269 318269
       1437 318271 318271 318271 318271
       1438 318277 318277 318277 318277
       1439 318294 318294 318294 318294
       1440 318309 318309 318309 318309
       1441 318310 318310 318310 318310
       1442 318319 318319 318319 318319
       1443 318336 318336 318336 318336
       1444 318351 318351 318351 318351
       1445 318352 318352 318352 318352
       1446 318358 318358 318358 318358
       1447 318374 318374 318374 318374
       1448 318389 318389 318389 318389
       1449 318390 318390 318390 318390
       1450 318397 318397 318397 318397
       1451 318402 318402 318402 318402
       1452 318429 318429 318429 318429
       1453 318430 318430 318430 318430
       1454 318435 318435 318435 318435
       1455 318451 318451 318451 318451
       1456 318466 318466 318466 318466
       1457 318467 318467 318467 318467
       1458 318475 318475 318475 318475
       1459 318491 318491 318491 318491
       1460 318506 318506 318506 318506
       1461 318507 318507 318507 318507
       1462 318514 318514 318514 318514
       1463 318531 318531 318531 318531
       1464 318546 318546 318546 318546
       1465 318547 318547 318547 318547
       1466 318549 318549 318549 318549
       1467 318556 318556 318556 318556
       1468 318572 318572 318572 318572
       1469 318587 318587 318587 318587
       1470 318588 318588 318588 318588
       1471 318597 318597 318597 318597
       1472 318613 318613 318613 318613
       1473 318628 318628 318628 318628
       1474 318629 318629 318629 318629
       1475 318636 318636 318636 318636
       1476 318653 318653 318653 318653
       1477 318656 318656 318656 318656
       1478 318667 318667 318667 318667
       1479 318668 318668 318668 318668
       1480 318673 318673 318673 318673
       1481 318690 318690 318690 318690
       1482 318693 318693 318693 318693
       1483 318705 318705 318705 318705
       1484 318706 318706 318706 318706
       1485 318708 318708 318708 318708
       1486 318711 318711 318711 318711
       1487 318727 318727 318727 318727
       1488 318730 318730 318730 318730
       1489 318742 318742 318742 318742
       1490 318743 318743 318743 318743
       1491 318749 318749 318749 318749
       1492 318766 318766 318766 318766
       1493 318769 318769 318769 318769
       1494 318781 318781 318781 318781
       1495 318782 318782 318782 318782
       1496 318789 318789 318789 318789
       1497 318805 318805 318805 318805
       1498 318808 318808 318808 318808
       1499 318820 318820 318820 318820
       1500 318821 318821 318821 318821
       1501 318826 318826 318826 318826
       1502 318842 318842 318842 318842
       1503 318845 318845 318845 318845
       1504 318857 318857 318857 318857
       1505 318858 318858 318858 318858
       1506 318862 318862 318862 318862
       1507 318867 318867 318867 318867
       1508 318882 318882 318882 318882
       1509 318894 318894 318894 318894
       1510 318895 318895 318895 318895
       1511 318899 318899 318899 318899
       1512 318916 318916 318916 318916
       1513 318919 318919 318919 318919
       1514 318931 318931 318931 318931
       1515 318932 318932 318932 318932
       1516 318937 318937 318937 318937
       1517 318953 318953 318953 318953
       1518 318956 318956 318956 318956
       1519 318968 318968 318968 318968
       1520 318969 318969 318969 318969
       1521 318975 318975 318975 318975
       1522 318991 318991 318991 318991
       1523 318994 318994 318994 318994
       1524 319006 319006 319006 319006
       1525 319007 319007 319007 319007
       1526 319011 319011 319011 319011
       1527 319014 319014 319014 319014
       1528 319031 319031 319031 319031
       1529 319034 319034 319034 319034
       1530 319046 319046 319046 319046
       1531 319047 319047 319047 319047
       1532 319054 319054 319054 319054
       1533 319069 319069 319069 319069
       1534 319072 319072 319072 319072
       1535 319084 319084 319084 319084
       1536 319085 319085 319085 319085
       1537 319091 319091 319091 319091
       1538 319108 319108 319108 319108
       1539 319111 319111 319111 319111
       1540 319123 319123 319123 319123
       1541 319124 319124 319124 319124
       1542 319131 319131 319131 319131
       1543 319147 319147 319147 319147
       1544 319150 319150 319150 319150
       1545 319162 319162 319162 319162
       1546 319163 319163 319163 319163
       1547 319170 319170 319170 319170
       1548 319186 319186 319186 319186
       1549 319189 319189 319189 319189
       1550 319201 319201 319201 319201
       1551 319202 319202 319202 319202
       1552 319205 319205 319205 319205
       1553 319211 319211 319211 319211
       1554 319227 319227 319227 319227
       1555 319230 319230 319230 319230
       1556 319242 319242 319242 319242
       1557 319243 319243 319243 319243
       1558 319251 319251 319251 319251
       1559 319267 319267 319267 319267
       1560 319270 319270 319270 319270
       1561 319282 319282 319282 319282
       1562 319283 319283 319283 319283
       1563 319290 319290 319290 319290
       1564 319306 319306 319306 319306
       1565 319309 319309 319309 319309
       1566 319321 319321 319321 319321
       1567 319322 319322 319322 319322
       1568 319324 319324 319324 319324
       1569 319329 319329 319329 319329
       1570 319344 319344 319344 319344
       1571 319356 319356 319356 319356
       1572 319357 319357 319357 319357
       1573 319360 319360 319360 319360
       1574 319376 319376 319376 319376
       1575 319379 319379 319379 319379
       1576 319391 319391 319391 319391
       1577 319392 319392 319392 319392
       1578 319412 319412 319412 319412
       1579 319415 319415 319415 319415
       1580 319427 319427 319427 319427
       1581 319428 319428 319428 319428
       1582 319430 319430 319430 319430
       1583 319449 319449 319449 319449
       1584 319452 319452 319452 319452
       1585 319464 319464 319464 319464
       1586 319465 319465 319465 319465
       1587 319486 319486 319486 319486
       1588 319489 319489 319489 319489
       1589 319501 319501 319501 319501
       1590 319502 319502 319502 319502
       1591 319513 319513 319513 319513
       1592 319524 319524 319524 319524
       1593 319527 319527 319527 319527
       1594 319539 319539 319539 319539
       1595 319540 319540 319540 319540
       1596 319549 319549 319549 319549
       1597 319552 319552 319552 319552
       1598 319563 319563 319563 319563
       1599 319566 319566 319566 319566
       1600 319578 319578 319578 319578
       1601 319579 319579 319579 319579
       1602 319588 319588 319588 319588
       1603 319604 319604 319604 319604
       1604 319607 319607 319607 319607
       1605 319619 319619 319619 319619
       1606 319620 319620 319620 319620
       1607 319626 319626 319626 319626
       1608 319644 319644 319644 319644
       1609 319647 319647 319647 319647
       1610 319659 319659 319659 319659
       1611 319660 319660 319660 319660
       1612 319664 319664 319664 319664
       1613 319682 319682 319682 319682
       1614 319685 319685 319685 319685
       1615 319697 319697 319697 319697
       1616 319698 319698 319698 319698
       1617 319702 319702 319702 319702
       1618 319720 319720 319720 319720
       1619 319723 319723 319723 319723
       1620 319735 319735 319735 319735
       1621 319736 319736 319736 319736
       1622 319738 319738 319738 319738
       1623 319755 319755 319755 319755
       1624 319758 319758 319758 319758
       1625 319770 319770 319770 319770
       1626 319771 319771 319771 319771
       1627 319779 319779 319779 319779
       1628 319784 319784 319784 319784
       1629 319799 319799 319799 319799
       1630 319811 319811 319811 319811
       1631 319812 319812 319812 319812
       1632 319814 319814 319814 319814
       1633 319817 319817 319817 319817
       1634 319835 319835 319835 319835
       1635 319838 319838 319838 319838
       1636 319849 319849 319849 319849
       1637 319850 319850 319850 319850
       1638 319854 319854 319854 319854
       1639 319870 319870 319870 319870
       1640 319873 319873 319873 319873
       1641 319885 319885 319885 319885
       1642 319886 319886 319886 319886
       1643 319889 319889 319889 319889
       1644 319905 319905 319905 319905
       1645 319908 319908 319908 319908
       1646 319920 319920 319920 319920
       1647 319921 319921 319921 319921
       1648 319925 319925 319925 319925
       1649 319943 319943 319943 319943
       1650 319946 319946 319946 319946
       1651 319958 319958 319958 319958
       1652 319962 319962 319962 319962
       1653 319980 319980 319980 319980
       1654 319983 319983 319983 319983
[...]
     number of failed solid  elements = 1841
     number of failed beam   elements = 0
     number of failed shell  elements = 0
     number of failed tshell elements = 0

 S u m m a r y   F r o m   A l l  P r o c e s s o r s
 f a i l e d   e l e m e n t   r e p o r t  time= 4.36740E-05

 CPU     0 CPU     1 CPU     2 CPU     3                                        
 --------- --------- --------- ---------                                        
      1841        55         0         0  
         0         0         0         0  
         0         0         0         0  
         0         0         0         0  

      total number of failed solid  elements =    1896
      total number of failed beam   elements =       0
      total number of failed shell  elements =       0
      total number of failed tshell elements =       0
 Element deleted due to damage
      node  number 300487 deleted at time  4.3720E-05
      node  number 23733 deleted at time  4.3720E-05
     solid element 39059  failed at time  4.3720E-05
 f a i l e d   e l e m e n t   r e p o r t  time=  4.3720E-05
     number of failed solid  elements = 1842
     number of failed beam   elements = 0
     number of failed shell  elements = 0
     number of failed tshell elements = 0

 S u m m a r y   F r o m   A l l  P r o c e s s o r s
 f a i l e d   e l e m e n t   r e p o r t  time= 4.37196E-05

 CPU     0 CPU     1 CPU     2 CPU     3                                        
 --------- --------- --------- ---------                                        
      1842        55         0         0  
         0         0         0         0  
         0         0         0         0  
         0         0         0         0  

      total number of failed solid  elements =    1897
      total number of failed beam   elements =       0
      total number of failed shell  elements =       0
      total number of failed tshell elements =       0
 Element deleted due to damage
      node  number 300486 deleted at time  4.3763E-05
      node  number 23711 deleted at time  4.3763E-05
     solid element 39021  failed at time  4.3763E-05
 f a i l e d   e l e m e n t   r e p o r t  time=  4.3763E-05
     number of failed solid  elements = 1843
     number of failed beam   elements = 0
     number of failed shell  elements = 0
     number of failed tshell elements = 0

 S u m m a r y   F r o m   A l l  P r o c e s s o r s
 f a i l e d   e l e m e n t   r e p o r t  time= 4.37632E-05

 CPU     0 CPU     1 CPU     2 CPU     3                                        
 --------- --------- --------- ---------                                        
      1843        55         0         0  
         0         0         0         0  
         0         0         0         0  
         0         0         0         0  

      total number of failed solid  elements =    1898
      total number of failed beam   elements =       0
      total number of failed shell  elements =       0
      total number of failed tshell elements =       0
 Element deleted due to damage
     solid element 30614  failed at time  4.3810E-05
 f a i l e d   e l e m e n t   r e p o r t  time=  4.3810E-05
     number of failed solid  elements = 1844
     number of failed beam   elements = 0
     number of failed shell  elements = 0
     number of failed tshell elements = 0

 S u m m a r y   F r o m   A l l  P r o c e s s o r s
 f a i l e d   e l e m e n t   r e p o r t  time= 4.38099E-05

 CPU     0 CPU     1 CPU     2 CPU     3                                        
 --------- --------- --------- ---------                                        
      1844        55         0         0  
         0         0         0         0  
         0         0         0         0  
         0         0         0         0  

      total number of failed solid  elements =    1899
      total number of failed beam   elements =       0
      total number of failed shell  elements =       0
      total number of failed tshell elements =       0
   43333 t 4.4440E-05 dt 1.04E-09 write d3plot file            04/08/22 12:12:32
   45000 t 4.6169E-05 dt 1.04E-09 flush i/o buffers            04/08/22 12:12:43
   45280 t 4.6460E-05 dt 1.04E-09 write d3plot file            04/08/22 12:12:44
   47226 t 4.8479E-05 dt 1.04E-09 write d3plot file            04/08/22 12:12:56
 f a i l e d   e l e m e n t   r e p o r t  time=  4.8840E-05
     number of failed solid  elements = 1844
     number of failed beam   elements = 0
     number of failed shell  elements = 0
     number of failed tshell elements = 0

 S u m m a r y   F r o m   A l l  P r o c e s s o r s
 f a i l e d   e l e m e n t   r e p o r t  time= 4.88402E-05

 CPU     0 CPU     1 CPU     2 CPU     3                                        
 --------- --------- --------- ---------                                        
      1844        56         0         0  
         0         0         0         0  
         0         0         0         0  
         0         0         0         0  

      total number of failed solid  elements =    1900
      total number of failed beam   elements =       0
      total number of failed shell  elements =       0
      total number of failed tshell elements =       0
 f a i l e d   e l e m e n t   r e p o r t  time=  4.9582E-05
     number of failed solid  elements = 1844
     number of failed beam   elements = 0
     number of failed shell  elements = 0
     number of failed tshell elements = 0

 S u m m a r y   F r o m   A l l  P r o c e s s o r s
 f a i l e d   e l e m e n t   r e p o r t  time= 4.95821E-05

 CPU     0 CPU     1 CPU     2 CPU     3                                        
 --------- --------- --------- ---------                                        
      1844        57         0         0  
         0         0         0         0  
         0         0         0         0  
         0         0         0         0  

      total number of failed solid  elements =    1901
      total number of failed beam   elements =       0
      total number of failed shell  elements =       0
      total number of failed tshell elements =       0
   49173 t 5.0499E-05 dt 1.04E-09 write d3plot file            04/08/22 12:13:08
   50000 t 5.1357E-05 dt 1.04E-09 flush i/o buffers            04/08/22 12:13:13
   51120 t 5.2520E-05 dt 1.04E-09 write d3plot file            04/08/22 12:13:20
 Element deleted due to damage
      node  number 309151 deleted at time  5.2612E-05
      node  number 305995 deleted at time  5.2612E-05
      node  number 309152 deleted at time  5.2612E-05
      node  number 20443 deleted at time  5.2612E-05
      node  number 13469 deleted at time  5.2612E-05
      node  number 20486 deleted at time  5.2612E-05
     solid element 35085  failed at time  5.2612E-05
 f a i l e d   e l e m e n t   r e p o r t  time=  5.2612E-05
     number of failed solid  elements = 1845
     number of failed beam   elements = 0
     number of failed shell  elements = 0
     number of failed tshell elements = 0

 S u m m a r y   F r o m   A l l  P r o c e s s o r s
 f a i l e d   e l e m e n t   r e p o r t  time= 5.26119E-05

 CPU     0 CPU     1 CPU     2 CPU     3                                        
 --------- --------- --------- ---------                                        
      1845        57         0         0  
         0         0         0         0  
         0         0         0         0  
         0         0         0         0  

      total number of failed solid  elements =    1902
      total number of failed beam   elements =       0
      total number of failed shell  elements =       0
      total number of failed tshell elements =       0
   53067 t 5.4540E-05 dt 1.04E-09 write d3plot file            04/08/22 12:13:33
 f a i l e d   e l e m e n t   r e p o r t  time=  5.5406E-05
     number of failed solid  elements = 1845
     number of failed beam   elements = 0
     number of failed shell  elements = 0
     number of failed tshell elements = 0

 S u m m a r y   F r o m   A l l  P r o c e s s o r s
 f a i l e d   e l e m e n t   r e p o r t  time= 5.54062E-05

 CPU     0 CPU     1 CPU     2 CPU     3                                        
 --------- --------- --------- ---------                                        
      1845        58         0         0  
         0         0         0         0  
         0         0         0         0  
         0         0         0         0  

      total number of failed solid  elements =    1903
      total number of failed beam   elements =       0
      total number of failed shell  elements =       0
      total number of failed tshell elements =       0
 f a i l e d   e l e m e n t   r e p o r t  time=  5.6476E-05
     number of failed solid  elements = 1845
     number of failed beam   elements = 0
     number of failed shell  elements = 0
     number of failed tshell elements = 0

 S u m m a r y   F r o m   A l l  P r o c e s s o r s
 f a i l e d   e l e m e n t   r e p o r t  time= 5.64759E-05

 CPU     0 CPU     1 CPU     2 CPU     3                                        
 --------- --------- --------- ---------                                        
      1845        59         0         0  
         0         0         0         0  
         0         0         0         0  
         0         0         0         0  

      total number of failed solid  elements =    1904
      total number of failed beam   elements =       0
      total number of failed shell  elements =       0
      total number of failed tshell elements =       0
   55000 t 5.6545E-05 dt 1.04E-09 flush i/o buffers            04/08/22 12:13:45
   55014 t 5.6560E-05 dt 1.04E-09 write d3plot file            04/08/22 12:13:45
 f a i l e d   e l e m e n t   r e p o r t  time=  5.7503E-05
     number of failed solid  elements = 1845
     number of failed beam   elements = 0
     number of failed shell  elements = 0
     number of failed tshell elements = 0

 S u m m a r y   F r o m   A l l  P r o c e s s o r s
 f a i l e d   e l e m e n t   r e p o r t  time= 5.75032E-05

 CPU     0 CPU     1 CPU     2 CPU     3                                        
 --------- --------- --------- ---------                                        
      1845        60         0         0  
         0         0         0         0  
         0         0         0         0  
         0         0         0         0  

      total number of failed solid  elements =    1905
      total number of failed beam   elements =       0
      total number of failed shell  elements =       0
      total number of failed tshell elements =       0
 f a i l e d   e l e m e n t   r e p o r t  time=  5.7929E-05
     number of failed solid  elements = 1845
     number of failed beam   elements = 0
     number of failed shell  elements = 0
     number of failed tshell elements = 0

 S u m m a r y   F r o m   A l l  P r o c e s s o r s
 f a i l e d   e l e m e n t   r e p o r t  time= 5.79286E-05

 CPU     0 CPU     1 CPU     2 CPU     3                                        
 --------- --------- --------- ---------                                        
      1845        61         0         0  
         0         0         0         0  
         0         0         0         0  
         0         0         0         0  

      total number of failed solid  elements =    1906
      total number of failed beam   elements =       0
      total number of failed shell  elements =       0
      total number of failed tshell elements =       0
   56960 t 5.8579E-05 dt 1.04E-09 write d3plot file            04/08/22 12:13:57
 f a i l e d   e l e m e n t   r e p o r t  time=  5.8590E-05
     number of failed solid  elements = 1845
     number of failed beam   elements = 0
     number of failed shell  elements = 0
     number of failed tshell elements = 0

 S u m m a r y   F r o m   A l l  P r o c e s s o r s
 f a i l e d   e l e m e n t   r e p o r t  time= 5.85895E-05

 CPU     0 CPU     1 CPU     2 CPU     3                                        
 --------- --------- --------- ---------                                        
      1845        62         0         0  
         0         0         0         0  
         0         0         0         0  
         0         0         0         0  

      total number of failed solid  elements =    1907
      total number of failed beam   elements =       0
      total number of failed shell  elements =       0
      total number of failed tshell elements =       0
 
 *** termination time reached ***
   58329 t 6.0001E-05 dt 1.04E-09 write d3plot file            04/08/22 12:14:05

 N o r m a l    t e r m i n a t i o n                          04/08/22 12:14:05

 S t o r a g e   a l l o c a t i o n   

 Memory required to complete solution   :     278K
 Additional dynamically allocated memory:      33M
                                   Total:      34M


 P r o c e s s o r   #         0

 T i m i n g   i n f o r m a t i o n
                        CPU(seconds)   %CPU  Clock(seconds) %Clock
  ----------------------------------------------------------------
  Keyword Processing ... 2.1953E-01    0.07     9.5300E-01    0.30
    KW Reading ......... 7.6314E-02    0.03     1.3339E-01    0.04
    KW Writing ......... 4.6216E-02    0.02     2.2388E-01    0.07
  MPP Decomposition .... 4.5082E-01    0.15     1.6848E+00    0.54
    Init Proc .......... 3.1247E-01    0.10     1.2373E+00    0.39
    Decomposition ...... 1.9921E-02    0.01     9.6139E-02    0.03
    Translation ........ 1.1832E-01    0.04     3.5123E-01    0.11
  Initialization ....... 1.4654E-01    0.05     3.8459E-01    0.12
    Init Proc Phase 1 .. 9.7223E-02    0.03     1.1902E-01    0.04
    Init Proc Phase 2 .. 1.2206E-02    0.00     3.9502E-02    0.01
  Init solver .......... 6.8722E-04    0.00     4.1100E-03    0.00
  Element processing ... 1.2438E+02   41.17     1.2506E+02   39.80
    Solids ............. 1.1975E+02   39.63     1.2037E+02   38.31
    E Other ............ 2.2890E-01    0.08     2.3011E-01    0.07
  Binary databases ..... 4.8278E-01    0.16     5.7089E-01    0.18
  ASCII database ....... 3.0220E+00    1.00     1.1071E+01    3.52
  Contact algorithm .... 5.8812E+01   19.47     5.9117E+01   18.81
    Interf. ID         3 1.4709E+01    4.87     1.4788E+01    4.71
    Interf. ID         2 3.7265E+01   12.33     3.7452E+01   11.92
  Rigid Bodies ......... 1.8244E-01    0.06     1.8387E-01    0.06
  DEM .................. 1.9117E+01    6.33     1.9207E+01    6.11
    DEM self contact ... 1.8551E+01    6.14     1.8639E+01    5.93
  Time step size ....... 6.4047E+01   21.20     6.4343E+01   20.48
  Group force file ..... 4.7653E-02    0.02     5.3348E-02    0.02
  Others ............... 2.1356E+00    0.71     2.1503E+00    0.68
    Force Sharing ...... 1.7658E+00    0.58     1.7715E+00    0.56
  Misc. 1 .............. 2.1395E+01    7.08     2.1639E+01    6.89
    Scale Masses ....... 1.8351E-02    0.01     1.8220E-02    0.01
    Force Constraints .. 3.1253E-02    0.01     3.1676E-02    0.01
    Force to Accel ..... 2.2138E+00    0.73     2.2199E+00    0.71
    Constraint Sharing . 4.0005E-02    0.01     4.0803E-02    0.01
    Update RB nodes .... 5.2762E-02    0.02     5.3613E-02    0.02
  Misc. 2 .............. 5.0623E+00    1.68     5.0865E+00    1.62
  Misc. 3 .............. 1.3149E+00    0.44     1.3977E+00    0.44
  Misc. 4 .............. 1.3152E+00    0.44     1.3271E+00    0.42
    Timestep Init ...... 9.1124E-01    0.30     9.1045E-01    0.29
    Apply Loads ........ 3.3272E-01    0.11     3.4216E-01    0.11
  ----------------------------------------------------------------
  T o t a l s            3.0213E+02  100.00     3.1423E+02  100.00


 A v e r a g e s

 T i m i n g   i n f o r m a t i o n
                        CPU(seconds)   %CPU  Clock(seconds) %Clock
  ----------------------------------------------------------------
  Keyword Processing ... 7.6648E-01    0.25     9.5298E-01    0.30
    KW Reading ......... 1.9078E-02    0.01     3.3349E-02    0.01
    KW Writing ......... 1.1554E-02    0.00     5.5970E-02    0.02
  MPP Decomposition .... 1.1705E+00    0.38     1.6831E+00    0.54
    Init Proc .......... 1.0025E+00    0.32     1.2376E+00    0.39
    Decomposition ...... 6.9621E-02    0.02     9.5905E-02    0.03
    Translation ........ 9.8263E-02    0.03     3.4946E-01    0.11
  Initialization ....... 2.1642E-01    0.07     3.8626E-01    0.12
    Init Proc Phase 1 .. 1.0117E-01    0.03     1.1906E-01    0.04
    Init Proc Phase 2 .. 1.2657E-02    0.00     3.9517E-02    0.01
  Init solver .......... 6.2207E-04    0.00     4.2085E-03    0.00
  Element processing ... 1.4168E+02   45.78     1.4248E+02   45.34
    Solids ............. 1.3612E+02   43.99     1.3686E+02   43.55
    E Other ............ 1.3874E-01    0.04     1.3931E-01    0.04
  Binary databases ..... 5.3904E-01    0.17     5.6734E-01    0.18
  ASCII database ....... 2.2738E+00    0.73     4.2988E+00    1.37
  Contact algorithm .... 5.6462E+01   18.25     5.6771E+01   18.07
    Interf. ID         3 1.3377E+01    4.32     1.3452E+01    4.28
    Interf. ID         2 3.6548E+01   11.81     3.6744E+01   11.69
  Rigid Bodies ......... 2.6022E-01    0.08     2.6175E-01    0.08
  DEM .................. 1.9749E+01    6.38     1.9850E+01    6.32
    DEM self contact ... 1.9138E+01    6.18     1.9238E+01    6.12
  Time step size ....... 4.6745E+01   15.11     4.6968E+01   14.95
  Group force file ..... 5.5061E-02    0.02     6.3756E-02    0.02
  Others ............... 2.3080E+00    0.75     2.3937E+00    0.76
    Force Sharing ...... 1.8722E+00    0.60     1.8791E+00    0.60
  Misc. 1 .............. 2.2686E+01    7.33     2.2856E+01    7.27
    Scale Masses ....... 2.3502E-02    0.01     2.3034E-02    0.01
    Force Constraints .. 3.8688E-02    0.01     3.9531E-02    0.01
    Force to Accel ..... 2.2191E+00    0.72     2.2260E+00    0.71
    Constraint Sharing . 4.0013E-02    0.01     4.0732E-02    0.01
    Update RB nodes .... 4.9558E-02    0.02     5.1239E-02    0.02
  Misc. 2 .............. 5.1326E+00    1.66     5.1554E+00    1.64
  Misc. 3 .............. 8.0918E+00    2.61     8.2019E+00    2.61
  Misc. 4 .............. 1.3227E+00    0.43     1.3356E+00    0.43
    Timestep Init ...... 9.5245E-01    0.31     9.5226E-01    0.30
    Apply Loads ........ 2.9860E-01    0.10     3.0763E-01    0.10
  ----------------------------------------------------------------
  T o t a l s            3.0946E+02  100.00     3.1423E+02  100.00

 Problem time       =    6.0001E-05
 Problem cycle      =     58329
 Total CPU time     =       309 seconds (   0 hours  5 minutes  9 seconds)
 CPU time per zone cycle  =        450.489 nanoseconds
 Clock time per zone cycle=        454.236 nanoseconds

 Parallel execution with      4 MPP proc
 NLQ used/max                64/    64

  C P U   T i m i n g   i n f o r m a t i o n

  Processor   Hostname                              CPU/Avg_CPU  CPU(seconds)
  ---------------------------------------------------------------------------
  #       0   compute-0-3                               0.97629   3.0219E+02
  #       1   compute-0-3                               1.00779   3.1194E+02
  #       2   compute-0-3                               1.00799   3.1200E+02
  #       3   compute-0-3                               1.00792   3.1198E+02
  ---------------------------------------------------------------------------
  T o t a l s                                                     1.2381E+03


 Start time   04/08/2022 12:08:51  
 End time     04/08/2022 12:14:05  
 Elapsed time     314 seconds for   58329 cycles using     4 MPP procs
             (      0 hour   5 minutes 14 seconds)

 N o r m a l    t e r m i n a t i o n                          04/08/22 12:14:05
   58329 t 6.0001E-05 dt 1.04E-09 flush i/o buffers            04/08/22 12:14:05
