      Date: 04/08/2022      Time: 12:08:51  

     ___________________________________________________
     |                                                 |
     |  Livermore Software Technology, LLC             |
     |                                                 |
     |  7374 Las Positas Road                          |
     |  Livermore, CA 94551                            |
     |  Tel: (925) 449-2500  Fax: (925) 449-2507       |
     |  www.lstc.com                                   |
     |_________________________________________________|
     |                                                 |
     |  LS-DYNA, A Program for Nonlinear Dynamic       |
     |  Analysis of Structures in Three Dimensions     |
     |  Version : mpp d R12.0.0   Date: 06/19/2020     |
     |  Revision: 148931          Time: 17:26:40       |
     |                                                 |
     |  Features enabled in this version:              |
     |    Distributed Memory Parallel                  |
     |    CESE CHEMISTRY EM ICFD STOCHASTIC_PARTICLES  |
     |    FFTW (multi-dimensional FFTW Library)        |
     |    ANSYS License (ANSYS202)                     |
     |    BigID  option                                |
     |                                                 |
     |  Licensed to:                                   |
     |  Issued by  : Pascale.SaneGuttin_02092022       |
     |                                                 |
     |  Platform   : Intel-MPI 2018 Xeon64             |
     |  OS Level   : Linux CentOS 6.5 uom              |
     |  Compiler   : Intel Fortran Compiler 16.0 AVX-2 |
     |  Hostname   : compute-0-3                       |
     |  Precision  : Double precision (I8R8)           |
     |  SVN Version: 148978                            |
     |                                                 |
     |  Unauthorized use infringes LST copyrights      |
     |_________________________________________________|


 Input file: DynaOpt.key                                                                     

 The native file format       : 64-bit small endian

 LS-DYNA will perform a structural only analysis 

 allocating  memory to   100000000 d     1985258 hex ownership chunk
 contracting memory to           7 d     1991124 material sort chunk
 expanding   memory to          12 d     2058123 nodal force sharing lists 1
 expanding   memory to          18 d     2038653 mat scratch
 expanding   memory to          19 d     3111563 tied nodes scratch
 expanding   memory to          22 d     3111563 tied node scratch
 contracting memory to          18 d     3111563 nodal rigid body scratch
 expanding   memory to        1298 d     3111563 DES sld2des scratch
 expanding   memory to       19798 d     3111563 DES sld2des scratch
 contracting memory to        2450 d     3111563 DES sld2des scratch
 contracting memory to          18 d     3111563 spring/damper scratch
 contracting memory to           1 d     2101524 Performing Decomposition -- Phase 3
 LS-DYNA keyword deck by LS-PrePost                                      
                         ls-dyna mpp.148931 d           date 06/19/2020
 expanding   memory to        4305 d     2101524 material, node and element data
 expanding   memory to        4399 d     2101543 mat add general damage 0
 expanding   memory to        4459 d     2101543 material added airbag porosity leakage 
 expanding   memory to        4477 d     2101543 material properties
 expanding   memory to        4495 d     2142079 element data for composite material
 expanding   memory to        4510 d     2487822 gradient of damage data
 expanding   memory to       17924 d     2531826 user control for contact interfaces
 contracting memory to       17910 d     2531826 thermal expansion 0
 expanding   memory to       17916 d     2531826 state of charge expansion 0
 expanding   memory to       17918 d     2531826 cross-sectional force definitions 0
 expanding   memory to       28077 d     2531862 temp index array for node sorting
 contracting memory to       17918 d     2531862 just because?
 expanding   memory to       20851 d     2552198 arbitrary element numbering input
 contracting memory to       17938 d    27543509 spc cards
 contracting memory to       17925 d    27543509 d3thdt storage
 expanding   memory to       17926 d    27634039 process element material data
 expanding   memory to       19927 d    27634033 load curve data
 contracting memory to       17933 d    27634033 user_define_loading_set
 expanding   memory to       18133 d    27634033 regularize time history data
 contracting memory to       17937 d    27634033 *DEFINE_ELEMENT_DEATH
 expanding   memory to       18192 d    27614565 contact interfaces
 expanding   memory to       39510 d    27614565 implicit contact 1
 expanding   memory to       62922 d    27614565 implicit contact 2
 contracting memory to       19192 d    27887194 contact segment data 1
 expanding   memory to       73133 d    28143949 contact segment data 3
 expanding   memory to      167101 d    28014686 read contacts, eroding check
 expanding   memory to      257919 d    28014686 eroding neighbors 2
 expanding   memory to      278451 d    28014686 eroding neighbors
 contracting memory to      114197 d    28471833 contact definition
 expanding   memory to      114203 d    28624278 contact history
 expanding   memory to      114257 d    28707820 rigid body
 expanding   memory to      114275 d    28708434 rbe2 scratch
 contracting memory to      114261 d    28771684 contact friction
 expanding   memory to      114351 d    28771690 joints
 expanding   memory to      116411 d    28771690 de sld2des
 expanding   memory to      116451 d    28780489 discrete elements regions
 expanding   memory to      116551 d    28989709 rigid bodies for disp. termination
 
 *** Warning 40859 (SOL+859)
     Cannot find elements of slave segment of interface 2
 deleted segment ID          n1          n2          n3          n4
       1 310645 310645 310645 310645
       2 310646 310646 310646 310646
       3 310650 310650 310650 310650
       4 310654 310654 310654 310654
       5 310655 310655 310655 310655
       6 310663 310663 310663 310663
       7 310667 310667 310667 310667
       8 310674 310674 310674 310674
       9 310681 310681 310681 310681
       10 310684 310684 310684 310684
       11 310687 310687 310687 310687
       12 310691 310691 310691 310691
       13 310692 310692 310692 310692
       14 310700 310700 310700 310700
       15 310704 310704 310704 310704
       16 310711 310711 310711 310711
       17 310712 310712 310712 310712
       18 310723 310723 310723 310723
       19 310724 310724 310724 310724
       20 310729 310729 310729 310729
       21 310733 310733 310733 310733
       22 310734 310734 310734 310734
       23 310742 310742 310742 310742
       24 310746 310746 310746 310746
       25 310753 310753 310753 310753
       26 310756 310756 310756 310756
       27 310757 310757 310757 310757
       28 310758 310758 310758 310758
       29 310766 310766 310766 310766
       30 310769 310769 310769 310769
       31 310772 310772 310772 310772
       32 310776 310776 310776 310776
       33 310777 310777 310777 310777
       34 310785 310785 310785 310785
       35 310789 310789 310789 310789
       36 310796 310796 310796 310796
       37 310800 310800 310800 310800
       38 310809 310809 310809 310809
       39 310812 310812 310812 310812
       40 310815 310815 310815 310815
       41 310819 310819 310819 310819
       42 310820 310820 310820 310820
       43 310828 310828 310828 310828
       44 310832 310832 310832 310832
       45 310839 310839 310839 310839
       46 310842 310842 310842 310842
       47 310845 310845 310845 310845
       48 310855 310855 310855 310855
       49 310858 310858 310858 310858
       50 310861 310861 310861 310861
       51 310865 310865 310865 310865
       52 310866 310866 310866 310866
       53 310872 310872 310872 310872
       54 310875 310875 310875 310875
       55 310882 310882 310882 310882
       56 310884 310884 310884 310884
       57 310886 310886 310886 310886
       58 310887 310887 310887 310887
       59 310894 310894 310894 310894
       60 310897 310897 310897 310897
       61 310899 310899 310899 310899
       62 310902 310902 310902 310902
       63 310903 310903 310903 310903
       64 310907 310907 310907 310907
       65 310914 310914 310914 310914
       66 310921 310921 310921 310921
       67 310931 310931 310931 310931
       68 310932 310932 310932 310932
       69 310937 310937 310937 310937
       70 310938 310938 310938 310938
       71 310941 310941 310941 310941
       72 310942 310942 310942 310942
       73 310946 310946 310946 310946
       74 310954 310954 310954 310954
       75 310961 310961 310961 310961
       76 310963 310963 310963 310963
       77 310970 310970 310970 310970
       78 310975 310975 310975 310975
       79 310977 310977 310977 310977
       80 310980 310980 310980 310980
       81 310981 310981 310981 310981
       82 310984 310984 310984 310984
       83 310992 310992 310992 310992
       84 310999 310999 310999 310999
       85 311002 311002 311002 311002
       86 311008 311008 311008 311008
       87 311011 311011 311011 311011
       88 311015 311015 311015 311015
       89 311018 311018 311018 311018
       90 311019 311019 311019 311019
       91 311023 311023 311023 311023
       92 311031 311031 311031 311031
       93 311038 311038 311038 311038
       94 311052 311052 311052 311052
       95 311055 311055 311055 311055
       96 311058 311058 311058 311058
       97 311061 311061 311061 311061
       98 311062 311062 311062 311062
       99 311066 311066 311066 311066
       100 311074 311074 311074 311074
       101 311081 311081 311081 311081
       102 311083 311083 311083 311083
       103 311088 311088 311088 311088
       104 311091 311091 311091 311091
       105 311094 311094 311094 311094
       106 311097 311097 311097 311097
       107 311098 311098 311098 311098
       108 311102 311102 311102 311102
       109 311110 311110 311110 311110
       110 311117 311117 311117 311117
       111 311119 311119 311119 311119
       112 311126 311126 311126 311126
       113 311129 311129 311129 311129
       114 311133 311133 311133 311133
       115 311136 311136 311136 311136
       116 311137 311137 311137 311137
       117 311141 311141 311141 311141
       118 311149 311149 311149 311149
       119 311156 311156 311156 311156
       120 311164 311164 311164 311164
       121 311169 311169 311169 311169
       122 311171 311171 311171 311171
       123 311174 311174 311174 311174
       124 311175 311175 311175 311175
       125 311179 311179 311179 311179
       126 311187 311187 311187 311187
       127 311194 311194 311194 311194
       128 311196 311196 311196 311196
       129 311197 311197 311197 311197
       130 311202 311202 311202 311202
       131 311205 311205 311205 311205
       132 311209 311209 311209 311209
       133 311212 311212 311212 311212
       134 311213 311213 311213 311213
       135 311217 311217 311217 311217
       136 311225 311225 311225 311225
       137 311232 311232 311232 311232
       138 311238 311238 311238 311238
       139 311241 311241 311241 311241
       140 311244 311244 311244 311244
       141 311247 311247 311247 311247
       142 311248 311248 311248 311248
       143 311252 311252 311252 311252
       144 311260 311260 311260 311260
       145 311267 311267 311267 311267
       146 311274 311274 311274 311274
       147 311281 311281 311281 311281
       148 311284 311284 311284 311284
       149 311287 311287 311287 311287
       150 311288 311288 311288 311288
       151 311291 311291 311291 311291
       152 311292 311292 311292 311292
       153 311296 311296 311296 311296
       154 311304 311304 311304 311304
       155 311311 311311 311311 311311
       156 311316 311316 311316 311316
       157 311324 311324 311324 311324
       158 311327 311327 311327 311327
       159 311329 311329 311329 311329
       160 311331 311331 311331 311331
       161 311334 311334 311334 311334
       162 311335 311335 311335 311335
       163 311339 311339 311339 311339
       164 311346 311346 311346 311346
       165 311353 311353 311353 311353
       166 311356 311356 311356 311356
       167 311367 311367 311367 311367
       168 311370 311370 311370 311370
       169 311372 311372 311372 311372
       170 311374 311374 311374 311374
       171 311377 311377 311377 311377
       172 311378 311378 311378 311378
       173 311382 311382 311382 311382
       174 311390 311390 311390 311390
       175 311397 311397 311397 311397
       176 311400 311400 311400 311400
       177 311410 311410 311410 311410
       178 311413 311413 311413 311413
       179 311415 311415 311415 311415
       180 311417 311417 311417 311417
       181 311420 311420 311420 311420
       182 311421 311421 311421 311421
       183 311425 311425 311425 311425
       184 311433 311433 311433 311433
       185 311440 311440 311440 311440
       186 311444 311444 311444 311444
       187 311450 311450 311450 311450
       188 311453 311453 311453 311453
       189 311455 311455 311455 311455
       190 311457 311457 311457 311457
       191 311461 311461 311461 311461
       192 311465 311465 311465 311465
       193 311473 311473 311473 311473
       194 311480 311480 311480 311480
       195 311489 311489 311489 311489
       196 311493 311493 311493 311493
       197 311494 311494 311494 311494
       198 311495 311495 311495 311495
       199 311499 311499 311499 311499
       200 311503 311503 311503 311503
       201 311506 311506 311506 311506
       202 311509 311509 311509 311509
       203 311511 311511 311511 311511
       204 311518 311518 311518 311518
       205 311523 311523 311523 311523
       206 311527 311527 311527 311527
       207 311530 311530 311530 311530
       208 311532 311532 311532 311532
       209 311534 311534 311534 311534
       210 311538 311538 311538 311538
       211 311542 311542 311542 311542
       212 311545 311545 311545 311545
       213 311548 311548 311548 311548
       214 311550 311550 311550 311550
       215 311557 311557 311557 311557
       216 311562 311562 311562 311562
       217 311567 311567 311567 311567
       218 311572 311572 311572 311572
       219 311573 311573 311573 311573
       220 311574 311574 311574 311574
       221 311578 311578 311578 311578
       222 311582 311582 311582 311582
       223 311585 311585 311585 311585
       224 311588 311588 311588 311588
       225 311590 311590 311590 311590
       226 311597 311597 311597 311597
       227 311599 311599 311599 311599
       228 311604 311604 311604 311604
       229 311607 311607 311607 311607
       230 311610 311610 311610 311610
       231 311611 311611 311611 311611
       232 311615 311615 311615 311615
       233 311619 311619 311619 311619
       234 311622 311622 311622 311622
       235 311625 311625 311625 311625
       236 311627 311627 311627 311627
       237 311634 311634 311634 311634
       238 311636 311636 311636 311636
       239 311641 311641 311641 311641
       240 311644 311644 311644 311644
       241 311647 311647 311647 311647
       242 311648 311648 311648 311648
       243 311652 311652 311652 311652
       244 311656 311656 311656 311656
       245 311659 311659 311659 311659
       246 311662 311662 311662 311662
       247 311664 311664 311664 311664
       248 311671 311671 311671 311671
       249 311676 311676 311676 311676
       250 311681 311681 311681 311681
       251 311684 311684 311684 311684
       252 311687 311687 311687 311687
       253 311688 311688 311688 311688
       254 311692 311692 311692 311692
       255 311696 311696 311696 311696
       256 311699 311699 311699 311699
       257 311702 311702 311702 311702
       258 311704 311704 311704 311704
       259 311711 311711 311711 311711
       260 311720 311720 311720 311720
       261 311723 311723 311723 311723
       262 311726 311726 311726 311726
       263 311727 311727 311727 311727
       264 311731 311731 311731 311731
       265 311735 311735 311735 311735
       266 311738 311738 311738 311738
       267 311741 311741 311741 311741
       268 311743 311743 311743 311743
       269 311750 311750 311750 311750
       270 311754 311754 311754 311754
       271 311759 311759 311759 311759
       272 311761 311761 311761 311761
       273 311764 311764 311764 311764
       274 311767 311767 311767 311767
       275 311768 311768 311768 311768
       276 311772 311772 311772 311772
       277 311776 311776 311776 311776
       278 311779 311779 311779 311779
       279 311782 311782 311782 311782
       280 311784 311784 311784 311784
       281 311791 311791 311791 311791
       282 311795 311795 311795 311795
       283 311800 311800 311800 311800
       284 311804 311804 311804 311804
       285 311807 311807 311807 311807
       286 311808 311808 311808 311808
       287 311812 311812 311812 311812
       288 311816 311816 311816 311816
       289 311819 311819 311819 311819
       290 311822 311822 311822 311822
       291 311824 311824 311824 311824
       292 311831 311831 311831 311831
       293 311839 311839 311839 311839
       294 311840 311840 311840 311840
       295 311843 311843 311843 311843
       296 311846 311846 311846 311846
       297 311847 311847 311847 311847
       298 311851 311851 311851 311851
       299 311854 311854 311854 311854
       300 311857 311857 311857 311857
       301 311860 311860 311860 311860
       302 311862 311862 311862 311862
       303 311869 311869 311869 311869
       304 311876 311876 311876 311876
       305 311878 311878 311878 311878
       306 311881 311881 311881 311881
       307 311884 311884 311884 311884
       308 311885 311885 311885 311885
       309 311889 311889 311889 311889
       310 311893 311893 311893 311893
       311 311896 311896 311896 311896
       312 311899 311899 311899 311899
       313 311901 311901 311901 311901
       314 311905 311905 311905 311905
       315 311908 311908 311908 311908
       316 311914 311914 311914 311914
       317 311917 311917 311917 311917
       318 311919 311919 311919 311919
       319 311922 311922 311922 311922
       320 311925 311925 311925 311925
       321 311926 311926 311926 311926
       322 311930 311930 311930 311930
       323 311934 311934 311934 311934
       324 311937 311937 311937 311937
       325 311940 311940 311940 311940
       326 311942 311942 311942 311942
       327 311946 311946 311946 311946
       328 311949 311949 311949 311949
       329 311953 311953 311953 311953
       330 311956 311956 311956 311956
       331 311958 311958 311958 311958
       332 311960 311960 311960 311960
       333 311963 311963 311963 311963
       334 311964 311964 311964 311964
       335 311968 311968 311968 311968
       336 311972 311972 311972 311972
       337 311975 311975 311975 311975
       338 311978 311978 311978 311978
       339 311980 311980 311980 311980
       340 311984 311984 311984 311984
       341 311987 311987 311987 311987
       342 311993 311993 311993 311993
       343 311996 311996 311996 311996
       344 311998 311998 311998 311998
       345 312001 312001 312001 312001
       346 312004 312004 312004 312004
       347 312005 312005 312005 312005
       348 312009 312009 312009 312009
       349 312012 312012 312012 312012
       350 312015 312015 312015 312015
       351 312018 312018 312018 312018
       352 312020 312020 312020 312020
       353 312024 312024 312024 312024
       354 312027 312027 312027 312027
       355 312029 312029 312029 312029
       356 312031 312031 312031 312031
       357 312034 312034 312034 312034
       358 312035 312035 312035 312035
       359 312038 312038 312038 312038
       360 312042 312042 312042 312042
       361 312045 312045 312045 312045
       362 312046 312046 312046 312046
       363 312050 312050 312050 312050
       364 312053 312053 312053 312053
       365 312056 312056 312056 312056
       366 312059 312059 312059 312059
       367 312061 312061 312061 312061
       368 312065 312065 312065 312065
       369 312068 312068 312068 312068
       370 312075 312075 312075 312075
       371 312077 312077 312077 312077
       372 312080 312080 312080 312080
       373 312082 312082 312082 312082
       374 312083 312083 312083 312083
       375 312087 312087 312087 312087
       376 312091 312091 312091 312091
       377 312094 312094 312094 312094
       378 312097 312097 312097 312097
       379 312099 312099 312099 312099
       380 312103 312103 312103 312103
       381 312106 312106 312106 312106
       382 312113 312113 312113 312113
       383 312115 312115 312115 312115
       384 312121 312121 312121 312121
       385 312122 312122 312122 312122
       386 312126 312126 312126 312126
       387 312130 312130 312130 312130
       388 312133 312133 312133 312133
       389 312136 312136 312136 312136
       390 312138 312138 312138 312138
       391 312142 312142 312142 312142
       392 312145 312145 312145 312145
       393 312156 312156 312156 312156
       394 312158 312158 312158 312158
       395 312164 312164 312164 312164
       396 312165 312165 312165 312165
       397 312169 312169 312169 312169
       398 312173 312173 312173 312173
       399 312176 312176 312176 312176
       400 312179 312179 312179 312179
       401 312181 312181 312181 312181
       402 312185 312185 312185 312185
       403 312188 312188 312188 312188
       404 312190 312190 312190 312190
       405 312192 312192 312192 312192
       406 312193 312193 312193 312193
       407 312196 312196 312196 312196
       408 312198 312198 312198 312198
       409 312205 312205 312205 312205
       410 312206 312206 312206 312206
       411 312210 312210 312210 312210
       412 312214 312214 312214 312214
       413 312217 312217 312217 312217
       414 312220 312220 312220 312220
       415 312222 312222 312222 312222
       416 312226 312226 312226 312226
       417 312229 312229 312229 312229
       418 312235 312235 312235 312235
       419 312237 312237 312237 312237
       420 312243 312243 312243 312243
       421 312244 312244 312244 312244
       422 312248 312248 312248 312248
       423 312252 312252 312252 312252
       424 312255 312255 312255 312255
       425 312258 312258 312258 312258
       426 312263 312263 312263 312263
       427 312266 312266 312266 312266
       428 312273 312273 312273 312273
       429 312275 312275 312275 312275
       430 312281 312281 312281 312281
       431 312284 312284 312284 312284
       432 312288 312288 312288 312288
       433 312291 312291 312291 312291
       434 312294 312294 312294 312294
       435 312300 312300 312300 312300
       436 312303 312303 312303 312303
       437 312306 312306 312306 312306
       438 312309 312309 312309 312309
       439 312311 312311 312311 312311
       440 312317 312317 312317 312317
       441 312318 312318 312318 312318
       442 312323 312323 312323 312323
       443 312326 312326 312326 312326
       444 312329 312329 312329 312329
       445 312332 312332 312332 312332
       446 312338 312338 312338 312338
       447 312341 312341 312341 312341
       448 312346 312346 312346 312346
       449 312348 312348 312348 312348
       450 312354 312354 312354 312354
       451 312355 312355 312355 312355
       452 312359 312359 312359 312359
       453 312363 312363 312363 312363
       454 312366 312366 312366 312366
       455 312369 312369 312369 312369
       456 312375 312375 312375 312375
       457 312378 312378 312378 312378
       458 312380 312380 312380 312380
       459 312384 312384 312384 312384
       460 312386 312386 312386 312386
       461 312391 312391 312391 312391
       462 312392 312392 312392 312392
       463 312397 312397 312397 312397
       464 312400 312400 312400 312400
       465 312403 312403 312403 312403
       466 312406 312406 312406 312406
       467 312412 312412 312412 312412
       468 312415 312415 312415 312415
       469 312421 312421 312421 312421
       470 312423 312423 312423 312423
       471 312427 312427 312427 312427
       472 312428 312428 312428 312428
       473 312429 312429 312429 312429
       474 312433 312433 312433 312433
       475 312437 312437 312437 312437
       476 312440 312440 312440 312440
       477 312443 312443 312443 312443
       478 312449 312449 312449 312449
       479 312452 312452 312452 312452
       480 312454 312454 312454 312454
       481 312458 312458 312458 312458
       482 312460 312460 312460 312460
       483 312463 312463 312463 312463
       484 312465 312465 312465 312465
       485 312466 312466 312466 312466
       486 312467 312467 312467 312467
       487 312471 312471 312471 312471
       488 312475 312475 312475 312475
       489 312478 312478 312478 312478
       490 312481 312481 312481 312481
       491 312487 312487 312487 312487
       492 312490 312490 312490 312490
       493 312496 312496 312496 312496
       494 312498 312498 312498 312498
       495 312502 312502 312502 312502
       496 312503 312503 312503 312503
       497 312504 312504 312504 312504
       498 312505 312505 312505 312505
       499 312509 312509 312509 312509
       500 312513 312513 312513 312513
       501 312516 312516 312516 312516
       502 312519 312519 312519 312519
       503 312525 312525 312525 312525
       504 312528 312528 312528 312528
       505 312534 312534 312534 312534
       506 312536 312536 312536 312536
       507 312540 312540 312540 312540
       508 312541 312541 312541 312541
       509 312542 312542 312542 312542
       510 312543 312543 312543 312543
       511 312547 312547 312547 312547
       512 312551 312551 312551 312551
       513 312554 312554 312554 312554
       514 312557 312557 312557 312557
       515 312563 312563 312563 312563
       516 312566 312566 312566 312566
       517 312568 312568 312568 312568
       518 312575 312575 312575 312575
       519 312577 312577 312577 312577
       520 312580 312580 312580 312580
       521 312581 312581 312581 312581
       522 312583 312583 312583 312583
       523 312584 312584 312584 312584
       524 312588 312588 312588 312588
       525 312592 312592 312592 312592
       526 312595 312595 312595 312595
       527 312598 312598 312598 312598
       528 312604 312604 312604 312604
       529 312607 312607 312607 312607
       530 312616 312616 312616 312616
       531 312618 312618 312618 312618
       532 312622 312622 312622 312622
       533 312623 312623 312623 312623
       534 312624 312624 312624 312624
       535 312625 312625 312625 312625
       536 312629 312629 312629 312629
       537 312632 312632 312632 312632
       538 312635 312635 312635 312635
       539 312638 312638 312638 312638
       540 312644 312644 312644 312644
       541 312647 312647 312647 312647
       542 312654 312654 312654 312654
       543 312656 312656 312656 312656
       544 312660 312660 312660 312660
       545 312661 312661 312661 312661
       546 312662 312662 312662 312662
       547 312663 312663 312663 312663
       548 312667 312667 312667 312667
       549 312671 312671 312671 312671
       550 312674 312674 312674 312674
       551 312677 312677 312677 312677
       552 312683 312683 312683 312683
       553 312686 312686 312686 312686
       554 312688 312688 312688 312688
       555 312694 312694 312694 312694
       556 312696 312696 312696 312696
       557 312700 312700 312700 312700
       558 312701 312701 312701 312701
       559 312702 312702 312702 312702
       560 312703 312703 312703 312703
       561 312707 312707 312707 312707
       562 312711 312711 312711 312711
       563 312714 312714 312714 312714
       564 312717 312717 312717 312717
       565 312723 312723 312723 312723
       566 312730 312730 312730 312730
       567 312732 312732 312732 312732
       568 312734 312734 312734 312734
       569 312736 312736 312736 312736
       570 312738 312738 312738 312738
       571 312739 312739 312739 312739
       572 312743 312743 312743 312743
       573 312747 312747 312747 312747
       574 312750 312750 312750 312750
       575 312753 312753 312753 312753
       576 312759 312759 312759 312759
       577 312766 312766 312766 312766
       578 312768 312768 312768 312768
       579 312772 312772 312772 312772
       580 312773 312773 312773 312773
       581 312774 312774 312774 312774
       582 312775 312775 312775 312775
       583 312779 312779 312779 312779
       584 312783 312783 312783 312783
       585 312786 312786 312786 312786
       586 312789 312789 312789 312789
       587 312795 312795 312795 312795
       588 312801 312801 312801 312801
       589 312803 312803 312803 312803
       590 312805 312805 312805 312805
       591 312808 312808 312808 312808
       592 312809 312809 312809 312809
       593 312811 312811 312811 312811
       594 312812 312812 312812 312812
       595 312816 312816 312816 312816
       596 312820 312820 312820 312820
       597 312823 312823 312823 312823
       598 312826 312826 312826 312826
       599 312832 312832 312832 312832
       600 312835 312835 312835 312835
       601 312839 312839 312839 312839
       602 312841 312841 312841 312841
       603 312842 312842 312842 312842
       604 312846 312846 312846 312846
       605 312847 312847 312847 312847
       606 312848 312848 312848 312848
       607 312852 312852 312852 312852
       608 312856 312856 312856 312856
       609 312859 312859 312859 312859
       610 312862 312862 312862 312862
       611 312868 312868 312868 312868
       612 312871 312871 312871 312871
       613 312879 312879 312879 312879
       614 312880 312880 312880 312880
       615 312881 312881 312881 312881
       616 312883 312883 312883 312883
       617 312884 312884 312884 312884
       618 312886 312886 312886 312886
       619 312887 312887 312887 312887
       620 312891 312891 312891 312891
       621 312895 312895 312895 312895
       622 312898 312898 312898 312898
       623 312901 312901 312901 312901
       624 312907 312907 312907 312907
       625 312910 312910 312910 312910
       626 312914 312914 312914 312914
       627 312915 312915 312915 312915
       628 312916 312916 312916 312916
       629 312917 312917 312917 312917
       630 312920 312920 312920 312920
       631 312921 312921 312921 312921
       632 312922 312922 312922 312922
       633 312923 312923 312923 312923
       634 312926 312926 312926 312926
       635 312930 312930 312930 312930
       636 312933 312933 312933 312933
       637 312936 312936 312936 312936
       638 312942 312942 312942 312942
       639 312945 312945 312945 312945
       640 312952 312952 312952 312952
       641 312954 312954 312954 312954
       642 312955 312955 312955 312955
       643 312956 312956 312956 312956
       644 312957 312957 312957 312957
       645 312960 312960 312960 312960
       646 312961 312961 312961 312961
       647 312962 312962 312962 312962
       648 312963 312963 312963 312963
       649 312966 312966 312966 312966
       650 312967 312967 312967 312967
       651 312971 312971 312971 312971
       652 312974 312974 312974 312974
       653 312977 312977 312977 312977
       654 312983 312983 312983 312983
       655 312986 312986 312986 312986
       656 312990 312990 312990 312990
       657 312991 312991 312991 312991
       658 312992 312992 312992 312992
       659 312993 312993 312993 312993
       660 312996 312996 312996 312996
       661 312998 312998 312998 312998
       662 312999 312999 312999 312999
       663 313002 313002 313002 313002
       664 313003 313003 313003 313003
       665 313007 313007 313007 313007
       666 313010 313010 313010 313010
       667 313013 313013 313013 313013
       668 313018 313018 313018 313018
       669 313021 313021 313021 313021
       670 313025 313025 313025 313025
       671 313028 313028 313028 313028
       672 313029 313029 313029 313029
       673 313030 313030 313030 313030
       674 313031 313031 313031 313031
       675 313034 313034 313034 313034
       676 313036 313036 313036 313036
       677 313037 313037 313037 313037
       678 313039 313039 313039 313039
       679 313041 313041 313041 313041
       680 313045 313045 313045 313045
       681 313048 313048 313048 313048
       682 313051 313051 313051 313051
       683 313054 313054 313054 313054
       684 313057 313057 313057 313057
       685 313060 313060 313060 313060
       686 313063 313063 313063 313063
       687 313066 313066 313066 313066
       688 313067 313067 313067 313067
       689 313068 313068 313068 313068
       690 313069 313069 313069 313069
       691 313072 313072 313072 313072
       692 313074 313074 313074 313074
       693 313075 313075 313075 313075
       694 313077 313077 313077 313077
       695 313078 313078 313078 313078
       696 313082 313082 313082 313082
       697 313085 313085 313085 313085
       698 313088 313088 313088 313088
       699 313091 313091 313091 313091
       700 313094 313094 313094 313094
       701 313097 313097 313097 313097
       702 313099 313099 313099 313099
       703 313102 313102 313102 313102
       704 313103 313103 313103 313103
       705 313104 313104 313104 313104
       706 313105 313105 313105 313105
       707 313108 313108 313108 313108
       708 313110 313110 313110 313110
       709 313111 313111 313111 313111
       710 313114 313114 313114 313114
       711 313115 313115 313115 313115
       712 313119 313119 313119 313119
       713 313122 313122 313122 313122
       714 313125 313125 313125 313125
       715 313128 313128 313128 313128
       716 313131 313131 313131 313131
       717 313134 313134 313134 313134
       718 313136 313136 313136 313136
       719 313137 313137 313137 313137
       720 313138 313138 313138 313138
       721 313141 313141 313141 313141
       722 313142 313142 313142 313142
       723 313143 313143 313143 313143
       724 313147 313147 313147 313147
       725 313149 313149 313149 313149
       726 313150 313150 313150 313150
       727 313153 313153 313153 313153
       728 313154 313154 313154 313154
       729 313158 313158 313158 313158
       730 313161 313161 313161 313161
       731 313163 313163 313163 313163
       732 313164 313164 313164 313164
       733 313167 313167 313167 313167
       734 313170 313170 313170 313170
       735 313173 313173 313173 313173
       736 313176 313176 313176 313176
       737 313179 313179 313179 313179
       738 313180 313180 313180 313180
       739 313181 313181 313181 313181
       740 313182 313182 313182 313182
       741 313185 313185 313185 313185
       742 313188 313188 313188 313188
       743 313189 313189 313189 313189
       744 313191 313191 313191 313191
       745 313192 313192 313192 313192
       746 313196 313196 313196 313196
       747 313199 313199 313199 313199
       748 313202 313202 313202 313202
       749 313205 313205 313205 313205
       750 313208 313208 313208 313208
       751 313211 313211 313211 313211
       752 313215 313215 313215 313215
       753 313216 313216 313216 313216
       754 313217 313217 313217 313217
       755 313218 313218 313218 313218
       756 313221 313221 313221 313221
       757 313223 313223 313223 313223
       758 313226 313226 313226 313226
       759 313227 313227 313227 313227
       760 313231 313231 313231 313231
       761 313234 313234 313234 313234
       762 313237 313237 313237 313237
       763 313240 313240 313240 313240
       764 313243 313243 313243 313243
       765 313246 313246 313246 313246
       766 313250 313250 313250 313250
       767 313251 313251 313251 313251
       768 313252 313252 313252 313252
       769 313255 313255 313255 313255
       770 313257 313257 313257 313257
       771 313261 313261 313261 313261
       772 313262 313262 313262 313262
       773 313266 313266 313266 313266
       774 313269 313269 313269 313269
       775 313272 313272 313272 313272
       776 313275 313275 313275 313275
       777 313278 313278 313278 313278
       778 313281 313281 313281 313281
       779 313289 313289 313289 313289
       780 313290 313290 313290 313290
       781 313291 313291 313291 313291
       782 313294 313294 313294 313294
       783 313297 313297 313297 313297
       784 313300 313300 313300 313300
       785 313301 313301 313301 313301
       786 313305 313305 313305 313305
       787 313308 313308 313308 313308
       788 313311 313311 313311 313311
       789 313314 313314 313314 313314
       790 313317 313317 313317 313317
       791 313320 313320 313320 313320
       792 313322 313322 313322 313322
       793 313326 313326 313326 313326
       794 313327 313327 313327 313327
       795 313328 313328 313328 313328
       796 313331 313331 313331 313331
       797 313334 313334 313334 313334
       798 313337 313337 313337 313337
       799 313338 313338 313338 313338
       800 313342 313342 313342 313342
       801 313345 313345 313345 313345
       802 313348 313348 313348 313348
       803 313351 313351 313351 313351
       804 313354 313354 313354 313354
       805 313357 313357 313357 313357
       806 313364 313364 313364 313364
       807 313365 313365 313365 313365
       808 313366 313366 313366 313366
       809 313368 313368 313368 313368
       810 313371 313371 313371 313371
       811 313374 313374 313374 313374
       812 313375 313375 313375 313375
       813 313379 313379 313379 313379
       814 313382 313382 313382 313382
       815 313385 313385 313385 313385
       816 313388 313388 313388 313388
       817 313391 313391 313391 313391
       818 313394 313394 313394 313394
       819 313397 313397 313397 313397
       820 313400 313400 313400 313400
       821 313405 313405 313405 313405
       822 313406 313406 313406 313406
       823 313409 313409 313409 313409
       824 313412 313412 313412 313412
       825 313415 313415 313415 313415
       826 313416 313416 313416 313416
       827 313420 313420 313420 313420
       828 313423 313423 313423 313423
       829 313426 313426 313426 313426
       830 313429 313429 313429 313429
       831 313432 313432 313432 313432
       832 313435 313435 313435 313435
       833 313441 313441 313441 313441
       834 313442 313442 313442 313442
       835 313443 313443 313443 313443
       836 313446 313446 313446 313446
       837 313449 313449 313449 313449
       838 313452 313452 313452 313452
       839 313453 313453 313453 313453
       840 313457 313457 313457 313457
       841 313460 313460 313460 313460
       842 313463 313463 313463 313463
       843 313466 313466 313466 313466
       844 313469 313469 313469 313469
       845 313472 313472 313472 313472
       846 313480 313480 313480 313480
       847 313481 313481 313481 313481
       848 313482 313482 313482 313482
       849 313485 313485 313485 313485
       850 313488 313488 313488 313488
       851 313491 313491 313491 313491
       852 313492 313492 313492 313492
       853 313496 313496 313496 313496
       854 313499 313499 313499 313499
       855 313502 313502 313502 313502
       856 313505 313505 313505 313505
       857 313508 313508 313508 313508
       858 313511 313511 313511 313511
       859 313514 313514 313514 313514
       860 313515 313515 313515 313515
       861 313520 313520 313520 313520
       862 313521 313521 313521 313521
       863 313522 313522 313522 313522
       864 313525 313525 313525 313525
       865 313528 313528 313528 313528
       866 313531 313531 313531 313531
       867 313532 313532 313532 313532
       868 313536 313536 313536 313536
       869 313539 313539 313539 313539
       870 313542 313542 313542 313542
       871 313545 313545 313545 313545
       872 313548 313548 313548 313548
       873 313551 313551 313551 313551
       874 313553 313553 313553 313553
       875 313554 313554 313554 313554
       876 313559 313559 313559 313559
       877 313560 313560 313560 313560
       878 313561 313561 313561 313561
       879 313564 313564 313564 313564
       880 313566 313566 313566 313566
       881 313570 313570 313570 313570
       882 313571 313571 313571 313571
       883 313575 313575 313575 313575
       884 313578 313578 313578 313578
       885 313581 313581 313581 313581
       886 313584 313584 313584 313584
       887 313587 313587 313587 313587
       888 313590 313590 313590 313590
       889 313592 313592 313592 313592
       890 313597 313597 313597 313597
       891 313598 313598 313598 313598
       892 313599 313599 313599 313599
       893 313602 313602 313602 313602
       894 313604 313604 313604 313604
       895 313608 313608 313608 313608
       896 313609 313609 313609 313609
       897 313613 313613 313613 313613
       898 313616 313616 313616 313616
       899 313619 313619 313619 313619
       900 313622 313622 313622 313622
       901 313625 313625 313625 313625
       902 313628 313628 313628 313628
       903 313631 313631 313631 313631
       904 313636 313636 313636 313636
       905 313637 313637 313637 313637
       906 313638 313638 313638 313638
       907 313641 313641 313641 313641
       908 313643 313643 313643 313643
       909 313647 313647 313647 313647
       910 313648 313648 313648 313648
       911 313652 313652 313652 313652
       912 313655 313655 313655 313655
       913 313658 313658 313658 313658
       914 313661 313661 313661 313661
       915 313664 313664 313664 313664
       916 313667 313667 313667 313667
       917 313669 313669 313669 313669
       918 313674 313674 313674 313674
       919 313675 313675 313675 313675
       920 313676 313676 313676 313676
       921 313679 313679 313679 313679
       922 313681 313681 313681 313681
       923 313685 313685 313685 313685
       924 313686 313686 313686 313686
       925 313690 313690 313690 313690
       926 313693 313693 313693 313693
       927 313695 313695 313695 313695
       928 313698 313698 313698 313698
       929 313701 313701 313701 313701
       930 313704 313704 313704 313704
       931 313710 313710 313710 313710
       932 313715 313715 313715 313715
       933 313717 313717 313717 313717
       934 313720 313720 313720 313720
       935 313722 313722 313722 313722
       936 313725 313725 313725 313725
       937 313726 313726 313726 313726
       938 313727 313727 313727 313727
       939 313731 313731 313731 313731
       940 313734 313734 313734 313734
       941 313736 313736 313736 313736
       942 313737 313737 313737 313737
       943 313740 313740 313740 313740
       944 313743 313743 313743 313743
       945 313746 313746 313746 313746
       946 313748 313748 313748 313748
       947 313750 313750 313750 313750
       948 313755 313755 313755 313755
       949 313757 313757 313757 313757
       950 313760 313760 313760 313760
       951 313762 313762 313762 313762
       952 313765 313765 313765 313765
       953 313766 313766 313766 313766
       954 313767 313767 313767 313767
       955 313771 313771 313771 313771
       956 313774 313774 313774 313774
       957 313776 313776 313776 313776
       958 313777 313777 313777 313777
       959 313780 313780 313780 313780
       960 313782 313782 313782 313782
       961 313785 313785 313785 313785
       962 313787 313787 313787 313787
       963 313788 313788 313788 313788
       964 313793 313793 313793 313793
       965 313795 313795 313795 313795
       966 313798 313798 313798 313798
       967 313800 313800 313800 313800
       968 313803 313803 313803 313803
       969 313804 313804 313804 313804
       970 313805 313805 313805 313805
       971 313809 313809 313809 313809
       972 313813 313813 313813 313813
       973 313814 313814 313814 313814
       974 313817 313817 313817 313817
       975 313820 313820 313820 313820
       976 313823 313823 313823 313823
       977 313825 313825 313825 313825
       978 313831 313831 313831 313831
       979 313833 313833 313833 313833
       980 313836 313836 313836 313836
       981 313838 313838 313838 313838
       982 313841 313841 313841 313841
       983 313842 313842 313842 313842
       984 313843 313843 313843 313843
       985 313847 313847 313847 313847
       986 313852 313852 313852 313852
       987 313853 313853 313853 313853
       988 313856 313856 313856 313856
       989 313859 313859 313859 313859
       990 313862 313862 313862 313862
       991 313864 313864 313864 313864
       992 313867 313867 313867 313867
       993 313869 313869 313869 313869
       994 313874 313874 313874 313874
       995 313876 313876 313876 313876
       996 313878 313878 313878 313878
       997 313880 313880 313880 313880
       998 313883 313883 313883 313883
       999 313884 313884 313884 313884
       1000 313885 313885 313885 313885
       1001 313889 313889 313889 313889
       1002 313894 313894 313894 313894
       1003 313895 313895 313895 313895
       1004 313898 313898 313898 313898
       1005 313901 313901 313901 313901
       1006 313904 313904 313904 313904
       1007 313909 313909 313909 313909
       1008 313915 313915 313915 313915
       1009 313917 313917 313917 313917
       1010 313920 313920 313920 313920
       1011 313922 313922 313922 313922
       1012 313925 313925 313925 313925
       1013 313926 313926 313926 313926
       1014 313927 313927 313927 313927
       1015 313931 313931 313931 313931
       1016 313936 313936 313936 313936
       1017 313937 313937 313937 313937
       1018 313940 313940 313940 313940
       1019 313943 313943 313943 313943
       1020 313946 313946 313946 313946
       1021 313949 313949 313949 313949
       1022 313950 313950 313950 313950
       1023 313957 313957 313957 313957
       1024 313959 313959 313959 313959
       1025 313961 313961 313961 313961
       1026 313964 313964 313964 313964
       1027 313965 313965 313965 313965
       1028 313966 313966 313966 313966
       1029 313970 313970 313970 313970
       1030 313975 313975 313975 313975
       1031 313976 313976 313976 313976
       1032 313979 313979 313979 313979
       1033 313982 313982 313982 313982
       1034 313985 313985 313985 313985
       1035 313987 313987 313987 313987
       1036 313993 313993 313993 313993
       1037 313995 313995 313995 313995
       1038 313998 313998 313998 313998
       1039 314003 314003 314003 314003
       1040 314004 314004 314004 314004
       1041 314005 314005 314005 314005
       1042 314009 314009 314009 314009
       1043 314014 314014 314014 314014
       1044 314015 314015 314015 314015
       1045 314018 314018 314018 314018
       1046 314021 314021 314021 314021
       1047 314024 314024 314024 314024
       1048 314026 314026 314026 314026
       1049 314028 314028 314028 314028
       1050 314034 314034 314034 314034
       1051 314036 314036 314036 314036
       1052 314039 314039 314039 314039
       1053 314044 314044 314044 314044
       1054 314045 314045 314045 314045
       1055 314046 314046 314046 314046
       1056 314050 314050 314050 314050
       1057 314055 314055 314055 314055
       1058 314056 314056 314056 314056
       1059 314059 314059 314059 314059
       1060 314062 314062 314062 314062
       1061 314065 314065 314065 314065
       1062 314067 314067 314067 314067
       1063 314069 314069 314069 314069
       1064 314071 314071 314071 314071
       1065 314076 314076 314076 314076
       1066 314078 314078 314078 314078
       1067 314081 314081 314081 314081
       1068 314086 314086 314086 314086
       1069 314087 314087 314087 314087
       1070 314088 314088 314088 314088
       1071 314096 314096 314096 314096
       1072 314097 314097 314097 314097
       1073 314100 314100 314100 314100
       1074 314103 314103 314103 314103
       1075 314106 314106 314106 314106
       1076 314108 314108 314108 314108
       1077 314109 314109 314109 314109
       1078 314111 314111 314111 314111
       1079 314113 314113 314113 314113
       1080 314117 314117 314117 314117
       1081 314121 314121 314121 314121
       1082 314122 314122 314122 314122
       1083 314127 314127 314127 314127
       1084 314128 314128 314128 314128
       1085 314129 314129 314129 314129
       1086 314138 314138 314138 314138
       1087 314139 314139 314139 314139
       1088 314142 314142 314142 314142
       1089 314145 314145 314145 314145
       1090 314148 314148 314148 314148
       1091 314154 314154 314154 314154
       1092 314158 314158 314158 314158
       1093 314160 314160 314160 314160
       1094 314163 314163 314163 314163
       1095 314168 314168 314168 314168
       1096 314169 314169 314169 314169
       1097 314170 314170 314170 314170
       1098 314179 314179 314179 314179
       1099 314180 314180 314180 314180
       1100 314183 314183 314183 314183
       1101 314186 314186 314186 314186
       1102 314189 314189 314189 314189
       1103 314191 314191 314191 314191
       1104 314194 314194 314194 314194
       1105 314198 314198 314198 314198
       1106 314200 314200 314200 314200
       1107 314203 314203 314203 314203
       1108 314207 314207 314207 314207
       1109 314208 314208 314208 314208
       1110 314217 314217 314217 314217
       1111 314218 314218 314218 314218
       1112 314221 314221 314221 314221
       1113 314224 314224 314224 314224
       1114 314227 314227 314227 314227
       1115 314232 314232 314232 314232
       1116 314240 314240 314240 314240
       1117 314241 314241 314241 314241
       1118 314246 314246 314246 314246
       1119 314247 314247 314247 314247
       1120 314256 314256 314256 314256
       1121 314257 314257 314257 314257
       1122 314260 314260 314260 314260
       1123 314263 314263 314263 314263
       1124 314266 314266 314266 314266
       1125 314269 314269 314269 314269
       1126 314274 314274 314274 314274
       1127 314276 314276 314276 314276
       1128 314279 314279 314279 314279
       1129 314284 314284 314284 314284
       1130 314285 314285 314285 314285
       1131 314286 314286 314286 314286
       1132 314295 314295 314295 314295
       1133 314296 314296 314296 314296
       1134 314299 314299 314299 314299
       1135 314302 314302 314302 314302
       1136 314305 314305 314305 314305
       1137 314314 314314 314314 314314
       1138 314318 314318 314318 314318
       1139 314319 314319 314319 314319
       1140 314324 314324 314324 314324
       1141 314325 314325 314325 314325
       1142 314334 314334 314334 314334
       1143 314335 314335 314335 314335
       1144 314338 314338 314338 314338
       1145 314341 314341 314341 314341
       1146 314344 314344 314344 314344
       1147 314347 314347 314347 314347
       1148 314351 314351 314351 314351
       1149 314353 314353 314353 314353
       1150 314356 314356 314356 314356
       1151 314361 314361 314361 314361
       1152 314362 314362 314362 314362
       1153 314363 314363 314363 314363
       1154 314372 314372 314372 314372
       1155 314373 314373 314373 314373
       1156 314376 314376 314376 314376
       1157 314379 314379 314379 314379
       1158 314382 314382 314382 314382
       1159 314386 314386 314386 314386
       1160 314387 314387 314387 314387
       1161 314392 314392 314392 314392
       1162 314396 314396 314396 314396
       1163 314397 314397 314397 314397
       1164 314401 314401 314401 314401
       1165 314402 314402 314402 314402
       1166 314403 314403 314403 314403
       1167 314412 314412 314412 314412
       1168 314413 314413 314413 314413
       1169 314416 314416 314416 314416
       1170 314419 314419 314419 314419
       1171 314422 314422 314422 314422
       1172 314424 314424 314424 314424
       1173 314430 314430 314430 314430
       1174 314432 314432 314432 314432
       1175 314437 314437 314437 314437
       1176 314439 314439 314439 314439
       1177 314440 314440 314440 314440
       1178 314441 314441 314441 314441
       1179 314449 314449 314449 314449
       1180 314450 314450 314450 314450
       1181 314453 314453 314453 314453
       1182 314456 314456 314456 314456
       1183 314459 314459 314459 314459
       1184 314462 314462 314462 314462
       1185 314467 314467 314467 314467
       1186 314471 314471 314471 314471
       1187 314472 314472 314472 314472
       1188 314474 314474 314474 314474
       1189 314476 314476 314476 314476
       1190 314477 314477 314477 314477
       1191 314478 314478 314478 314478
       1192 314483 314483 314483 314483
       1193 314487 314487 314487 314487
       1194 314488 314488 314488 314488
       1195 314491 314491 314491 314491
       1196 314494 314494 314494 314494
       1197 314497 314497 314497 314497
       1198 314500 314500 314500 314500
       1199 314501 314501 314501 314501
       1200 314502 314502 314502 314502
       1201 314504 314504 314504 314504
       1202 314508 314508 314508 314508
       1203 314510 314510 314510 314510
       1204 314513 314513 314513 314513
       1205 314515 314515 314515 314515
       1206 314518 314518 314518 314518
       1207 314519 314519 314519 314519
       1208 314520 314520 314520 314520
       1209 314525 314525 314525 314525
       1210 314529 314529 314529 314529
       1211 314530 314530 314530 314530
       1212 314533 314533 314533 314533
       1213 314536 314536 314536 314536
       1214 314539 314539 314539 314539
       1215 314542 314542 314542 314542
       1216 314545 314545 314545 314545
       1217 314550 314550 314550 314550
       1218 314552 314552 314552 314552
       1219 314555 314555 314555 314555
       1220 314557 314557 314557 314557
       1221 314560 314560 314560 314560
       1222 314561 314561 314561 314561
       1223 314562 314562 314562 314562
       1224 314567 314567 314567 314567
       1225 314571 314571 314571 314571
       1226 314572 314572 314572 314572
       1227 314575 314575 314575 314575
       1228 314578 314578 314578 314578
       1229 314581 314581 314581 314581
       1230 314583 314583 314583 314583
       1231 314589 314589 314589 314589
       1232 314593 314593 314593 314593
       1233 314594 314594 314594 314594
       1234 314596 314596 314596 314596
       1235 314599 314599 314599 314599
       1236 314600 314600 314600 314600
       1237 314601 314601 314601 314601
       1238 314606 314606 314606 314606
       1239 314610 314610 314610 314610
       1240 314611 314611 314611 314611
       1241 314614 314614 314614 314614
       1242 314617 314617 314617 314617
       1243 314620 314620 314620 314620
       1244 314622 314622 314622 314622
       1245 314628 314628 314628 314628
       1246 314630 314630 314630 314630
       1247 314633 314633 314633 314633
       1248 314635 314635 314635 314635
       1249 314638 314638 314638 314638
       1250 314639 314639 314639 314639
       1251 314640 314640 314640 314640
       1252 314645 314645 314645 314645
       1253 314649 314649 314649 314649
       1254 314650 314650 314650 314650
       1255 314653 314653 314653 314653
       1256 314656 314656 314656 314656
       1257 314659 314659 314659 314659
       1258 314665 314665 314665 314665
       1259 314669 314669 314669 314669
       1260 314670 314670 314670 314670
       1261 314672 314672 314672 314672
       1262 314675 314675 314675 314675
       1263 314676 314676 314676 314676
       1264 314677 314677 314677 314677
       1265 314682 314682 314682 314682
       1266 314686 314686 314686 314686
       1267 314687 314687 314687 314687
       1268 314690 314690 314690 314690
       1269 314693 314693 314693 314693
       1270 314696 314696 314696 314696
       1271 314699 314699 314699 314699
       1272 314701 314701 314701 314701
       1273 314706 314706 314706 314706
       1274 314709 314709 314709 314709
       1275 314712 314712 314712 314712
       1276 314714 314714 314714 314714
       1277 314715 314715 314715 314715
       1278 314716 314716 314716 314716
       1279 314721 314721 314721 314721
       1280 314725 314725 314725 314725
       1281 314726 314726 314726 314726
       1282 314728 314728 314728 314728
       1283 314729 314729 314729 314729
       1284 314732 314732 314732 314732
       1285 314735 314735 314735 314735
       1286 314738 314738 314738 314738
       1287 314740 314740 314740 314740
       1288 314743 314743 314743 314743
       1289 314745 314745 314745 314745
       1290 314750 314750 314750 314750
       1291 314752 314752 314752 314752
       1292 314753 314753 314753 314753
       1293 314758 314758 314758 314758
       1294 314762 314762 314762 314762
       1295 314763 314763 314763 314763
       1296 314765 314765 314765 314765
       1297 314766 314766 314766 314766
       1298 314769 314769 314769 314769
       1299 314772 314772 314772 314772
       1300 314775 314775 314775 314775
       1301 314779 314779 314779 314779
       1302 314783 314783 314783 314783
       1303 314787 314787 314787 314787
       1304 314789 314789 314789 314789
       1305 314790 314790 314790 314790
       1306 314796 314796 314796 314796
       1307 314800 314800 314800 314800
       1308 314801 314801 314801 314801
       1309 314803 314803 314803 314803
       1310 314804 314804 314804 314804
       1311 314807 314807 314807 314807
       1312 314810 314810 314810 314810
       1313 314813 314813 314813 314813
       1314 314814 314814 314814 314814
       1315 314818 314818 314818 314818
       1316 314820 314820 314820 314820
       1317 314826 314826 314826 314826
       1318 314828 314828 314828 314828
       1319 314829 314829 314829 314829
       1320 314835 314835 314835 314835
       1321 314839 314839 314839 314839
       1322 314840 314840 314840 314840
       1323 314842 314842 314842 314842
       1324 314843 314843 314843 314843
       1325 314846 314846 314846 314846
       1326 314849 314849 314849 314849
       1327 314859 314859 314859 314859
       1328 314863 314863 314863 314863
       1329 314867 314867 314867 314867
       1330 314869 314869 314869 314869
       1331 314870 314870 314870 314870
       1332 314876 314876 314876 314876
       1333 314880 314880 314880 314880
       1334 314881 314881 314881 314881
       1335 314883 314883 314883 314883
       1336 314884 314884 314884 314884
       1337 314887 314887 314887 314887
       1338 314890 314890 314890 314890
       1339 314893 314893 314893 314893
       1340 314894 314894 314894 314894
       1341 314896 314896 314896 314896
       1342 314903 314903 314903 314903
       1343 314905 314905 314905 314905
       1344 314911 314911 314911 314911
       1345 314913 314913 314913 314913
       1346 314914 314914 314914 314914
       1347 314920 314920 314920 314920
       1348 314924 314924 314924 314924
       1349 314925 314925 314925 314925
       1350 314927 314927 314927 314927
       1351 314928 314928 314928 314928
       1352 314931 314931 314931 314931
       1353 314934 314934 314934 314934
       1354 314943 314943 314943 314943
       1355 314947 314947 314947 314947
       1356 314951 314951 314951 314951
       1357 314953 314953 314953 314953
       1358 314954 314954 314954 314954
       1359 314960 314960 314960 314960
       1360 314964 314964 314964 314964
       1361 314965 314965 314965 314965
       1362 314967 314967 314967 314967
       1363 314968 314968 314968 314968
       1364 314971 314971 314971 314971
       1365 314974 314974 314974 314974
       1366 314983 314983 314983 314983
       1367 314985 314985 314985 314985
       1368 314991 314991 314991 314991
       1369 314993 314993 314993 314993
       1370 314994 314994 314994 314994
       1371 314999 314999 314999 314999
       1372 315003 315003 315003 315003
       1373 315004 315004 315004 315004
       1374 315006 315006 315006 315006
       1375 315007 315007 315007 315007
       1376 315010 315010 315010 315010
       1377 315013 315013 315013 315013
       1378 315024 315024 315024 315024
       1379 315028 315028 315028 315028
       1380 315032 315032 315032 315032
       1381 315034 315034 315034 315034
       1382 315035 315035 315035 315035
       1383 315040 315040 315040 315040
       1384 315044 315044 315044 315044
       1385 315045 315045 315045 315045
       1386 315047 315047 315047 315047
       1387 315048 315048 315048 315048
       1388 315051 315051 315051 315051
       1389 315054 315054 315054 315054
       1390 315064 315064 315064 315064
       1391 315066 315066 315066 315066
       1392 315072 315072 315072 315072
       1393 315074 315074 315074 315074
       1394 315075 315075 315075 315075
       1395 315080 315080 315080 315080
       1396 315084 315084 315084 315084
       1397 315085 315085 315085 315085
       1398 315087 315087 315087 315087
       1399 315088 315088 315088 315088
       1400 315091 315091 315091 315091
       1401 315094 315094 315094 315094
       1402 315096 315096 315096 315096
       1403 315106 315106 315106 315106
       1404 315108 315108 315108 315108
       1405 315114 315114 315114 315114
       1406 315116 315116 315116 315116
       1407 315117 315117 315117 315117
       1408 315122 315122 315122 315122
       1409 315126 315126 315126 315126
       1410 315127 315127 315127 315127
       1411 315129 315129 315129 315129
       1412 315130 315130 315130 315130
       1413 315133 315133 315133 315133
       1414 315136 315136 315136 315136
       1415 315144 315144 315144 315144
       1416 315146 315146 315146 315146
       1417 315152 315152 315152 315152
       1418 315154 315154 315154 315154
       1419 315155 315155 315155 315155
       1420 315161 315161 315161 315161
       1421 315165 315165 315165 315165
       1422 315166 315166 315166 315166
       1423 315168 315168 315168 315168
       1424 315169 315169 315169 315169
       1425 315172 315172 315172 315172
       1426 315175 315175 315175 315175
       1427 315179 315179 315179 315179
       1428 315183 315183 315183 315183
       1429 315187 315187 315187 315187
       1430 315189 315189 315189 315189
       1431 315195 315195 315195 315195
       1432 315202 315202 315202 315202
       1433 315206 315206 315206 315206
       1434 315207 315207 315207 315207
       1435 315209 315209 315209 315209
       1436 315210 315210 315210 315210
       1437 315213 315213 315213 315213
       1438 315215 315215 315215 315215
       1439 315219 315219 315219 315219
       1440 315221 315221 315221 315221
       1441 315225 315225 315225 315225
       1442 315227 315227 315227 315227
       1443 315233 315233 315233 315233
       1444 315236 315236 315236 315236
       1445 315242 315242 315242 315242
       1446 315246 315246 315246 315246
       1447 315247 315247 315247 315247
       1448 315249 315249 315249 315249
       1449 315250 315250 315250 315250
       1450 315253 315253 315253 315253
       1451 315255 315255 315255 315255
       1452 315259 315259 315259 315259
       1453 315262 315262 315262 315262
       1454 315264 315264 315264 315264
       1455 315270 315270 315270 315270
       1456 315272 315272 315272 315272
       1457 315277 315277 315277 315277
       1458 315281 315281 315281 315281
       1459 315282 315282 315282 315282
       1460 315284 315284 315284 315284
       1461 315285 315285 315285 315285
       1462 315288 315288 315288 315288
       1463 315291 315291 315291 315291
       1464 315299 315299 315299 315299
       1465 315301 315301 315301 315301
       1466 315303 315303 315303 315303
       1467 315309 315309 315309 315309
       1468 315312 315312 315312 315312
       1469 315317 315317 315317 315317
       1470 315321 315321 315321 315321
       1471 315322 315322 315322 315322
       1472 315324 315324 315324 315324
       1473 315325 315325 315325 315325
       1474 315328 315328 315328 315328
       1475 315331 315331 315331 315331
       1476 315334 315334 315334 315334
       1477 315336 315336 315336 315336
       1478 315337 315337 315337 315337
       1479 315340 315340 315340 315340
       1480 315342 315342 315342 315342
       1481 315348 315348 315348 315348
       1482 315351 315351 315351 315351
       1483 315356 315356 315356 315356
       1484 315360 315360 315360 315360
       1485 315361 315361 315361 315361
       1486 315363 315363 315363 315363
       1487 315364 315364 315364 315364
       1488 315367 315367 315367 315367
       1489 315370 315370 315370 315370
       1490 315374 315374 315374 315374
       1491 315377 315377 315377 315377
       1492 315379 315379 315379 315379
       1493 315384 315384 315384 315384
       1494 315392 315392 315392 315392
       1495 315396 315396 315396 315396
       1496 315397 315397 315397 315397
       1497 315399 315399 315399 315399
       1498 315400 315400 315400 315400
       1499 315403 315403 315403 315403
       1500 315406 315406 315406 315406
       1501 315410 315410 315410 315410
       1502 315414 315414 315414 315414
       1503 315416 315416 315416 315416
       1504 315417 315417 315417 315417
       1505 315422 315422 315422 315422
       1506 315430 315430 315430 315430
       1507 315434 315434 315434 315434
       1508 315435 315435 315435 315435
       1509 315437 315437 315437 315437
       1510 315438 315438 315438 315438
       1511 315441 315441 315441 315441
       1512 315444 315444 315444 315444
       1513 315448 315448 315448 315448
       1514 315451 315451 315451 315451
       1515 315453 315453 315453 315453
       1516 315454 315454 315454 315454
       1517 315459 315459 315459 315459
       1518 315468 315468 315468 315468
       1519 315472 315472 315472 315472
       1520 315473 315473 315473 315473
       1521 315475 315475 315475 315475
       1522 315476 315476 315476 315476
       1523 315479 315479 315479 315479
       1524 315482 315482 315482 315482
       1525 315486 315486 315486 315486
       1526 315489 315489 315489 315489
       1527 315491 315491 315491 315491
       1528 315492 315492 315492 315492
       1529 315497 315497 315497 315497
       1530 315506 315506 315506 315506
       1531 315510 315510 315510 315510
       1532 315511 315511 315511 315511
       1533 315513 315513 315513 315513
       1534 315514 315514 315514 315514
       1535 315519 315519 315519 315519
       1536 315523 315523 315523 315523
       1537 315526 315526 315526 315526
       1538 315528 315528 315528 315528
       1539 315529 315529 315529 315529
       1540 315534 315534 315534 315534
       1541 315543 315543 315543 315543
       1542 315547 315547 315547 315547
       1543 315548 315548 315548 315548
       1544 315550 315550 315550 315550
       1545 315551 315551 315551 315551
       1546 315557 315557 315557 315557
       1547 315560 315560 315560 315560
       1548 315562 315562 315562 315562
       1549 315564 315564 315564 315564
       1550 315566 315566 315566 315566
       1551 315567 315567 315567 315567
       1552 315580 315580 315580 315580
       1553 315581 315581 315581 315581
       1554 315584 315584 315584 315584
       1555 315585 315585 315585 315585
       1556 315587 315587 315587 315587
       1557 315588 315588 315588 315588
       1558 315594 315594 315594 315594
       1559 315596 315596 315596 315596
       1560 315597 315597 315597 315597
       1561 315598 315598 315598 315598
       1562 315599 315599 315599 315599
       1563 315602 315602 315602 315602
       1564 315604 315604 315604 315604
       1565 315605 315605 315605 315605
       1566 315619 315619 315619 315619
       1567 315620 315620 315620 315620
       1568 315623 315623 315623 315623
       1569 315624 315624 315624 315624
       1570 315626 315626 315626 315626
       1571 315627 315627 315627 315627
       1572 315633 315633 315633 315633
       1573 315635 315635 315635 315635
       1574 315636 315636 315636 315636
       1575 315639 315639 315639 315639
       1576 315640 315640 315640 315640
       1577 315641 315641 315641 315641
       1578 315655 315655 315655 315655
       1579 315656 315656 315656 315656
       1580 315659 315659 315659 315659
       1581 315660 315660 315660 315660
       1582 315662 315662 315662 315662
       1583 315663 315663 315663 315663
       1584 315669 315669 315669 315669
       1585 315671 315671 315671 315671
       1586 315675 315675 315675 315675
       1587 315676 315676 315676 315676
       1588 315677 315677 315677 315677
       1589 315678 315678 315678 315678
       1590 315692 315692 315692 315692
       1591 315693 315693 315693 315693
       1592 315696 315696 315696 315696
       1593 315697 315697 315697 315697
       1594 315699 315699 315699 315699
       1595 315700 315700 315700 315700
       1596 315706 315706 315706 315706
       1597 315711 315711 315711 315711
       1598 315716 315716 315716 315716
       1599 315717 315717 315717 315717
       1600 315718 315718 315718 315718
       1601 315732 315732 315732 315732
       1602 315733 315733 315733 315733
       1603 315736 315736 315736 315736
       1604 315737 315737 315737 315737
       1605 315739 315739 315739 315739
       1606 315740 315740 315740 315740
       1607 315746 315746 315746 315746
       1608 315748 315748 315748 315748
       1609 315754 315754 315754 315754
       1610 315755 315755 315755 315755
       1611 315761 315761 315761 315761
       1612 315768 315768 315768 315768
       1613 315769 315769 315769 315769
       1614 315772 315772 315772 315772
       1615 315773 315773 315773 315773
       1616 315775 315775 315775 315775
       1617 315776 315776 315776 315776
       1618 315782 315782 315782 315782
       1619 315786 315786 315786 315786
       1620 315788 315788 315788 315788
       1621 315792 315792 315792 315792
       1622 315793 315793 315793 315793
       1623 315794 315794 315794 315794
       1624 315808 315808 315808 315808
       1625 315809 315809 315809 315809
       1626 315812 315812 315812 315812
       1627 315813 315813 315813 315813
       1628 315815 315815 315815 315815
       1629 315816 315816 315816 315816
       1630 315822 315822 315822 315822
       1631 315825 315825 315825 315825
       1632 315826 315826 315826 315826
       1633 315827 315827 315827 315827
       1634 315828 315828 315828 315828
       1635 315832 315832 315832 315832
       1636 315833 315833 315833 315833
       1637 315834 315834 315834 315834
       1638 315848 315848 315848 315848
       1639 315849 315849 315849 315849
       1640 315852 315852 315852 315852
       1641 315853 315853 315853 315853
       1642 315855 315855 315855 315855
       1643 315856 315856 315856 315856
       1644 315862 315862 315862 315862
       1645 315864 315864 315864 315864
       1646 315868 315868 315868 315868
       1647 315869 315869 315869 315869
       1648 315870 315870 315870 315870
       1649 315871 315871 315871 315871
       1650 315875 315875 315875 315875
       1651 315876 315876 315876 315876
       1652 315891 315891 315891 315891
       1653 315893 315893 315893 315893
       1654 315894 315894 315894 315894
       1655 315896 315896 315896 315896
       1656 315897 315897 315897 315897
       1657 315905 315905 315905 315905
       1658 315908 315908 315908 315908
       1659 315909 315909 315909 315909
       1660 315913 315913 315913 315913
       1661 315914 315914 315914 315914
       1662 315915 315915 315915 315915
       1663 315929 315929 315929 315929
       1664 315933 315933 315933 315933
       1665 315934 315934 315934 315934
       1666 315936 315936 315936 315936
       1667 315937 315937 315937 315937
       1668 315950 315950 315950 315950
       1669 315951 315951 315951 315951
       1670 315955 315955 315955 315955
       1671 315956 315956 315956 315956
       1672 315957 315957 315957 315957
       1673 315971 315971 315971 315971
       1674 315974 315974 315974 315974
       1675 315975 315975 315975 315975
       1676 315977 315977 315977 315977
       1677 315978 315978 315978 315978
       1678 315989 315989 315989 315989
       1679 315991 315991 315991 315991
       1680 315994 315994 315994 315994
       1681 315996 315996 315996 315996
       1682 315997 315997 315997 315997
       1683 316011 316011 316011 316011
       1684 316015 316015 316015 316015
       1685 316016 316016 316016 316016
       1686 316018 316018 316018 316018
       1687 316019 316019 316019 316019
       1688 316028 316028 316028 316028
       1689 316030 316030 316030 316030
       1690 316034 316034 316034 316034
       1691 316035 316035 316035 316035
       1692 316036 316036 316036 316036
       1693 316050 316050 316050 316050
       1694 316054 316054 316054 316054
       1695 316055 316055 316055 316055
       1696 316057 316057 316057 316057
       1697 316058 316058 316058 316058
       1698 316067 316067 316067 316067
       1699 316068 316068 316068 316068
       1700 316072 316072 316072 316072
       1701 316073 316073 316073 316073
       1702 316074 316074 316074 316074
       1703 316088 316088 316088 316088
       1704 316092 316092 316092 316092
       1705 316093 316093 316093 316093
       1706 316095 316095 316095 316095
       1707 316096 316096 316096 316096
       1708 316104 316104 316104 316104
       1709 316107 316107 316107 316107
       1710 316111 316111 316111 316111
       1711 316112 316112 316112 316112
       1712 316114 316114 316114 316114
       1713 316127 316127 316127 316127
       1714 316131 316131 316131 316131
       1715 316132 316132 316132 316132
       1716 316134 316134 316134 316134
       1717 316135 316135 316135 316135
       1718 316144 316144 316144 316144
       1719 316146 316146 316146 316146
       1720 316148 316148 316148 316148
       1721 316153 316153 316153 316153
       1722 316166 316166 316166 316166
       1723 316170 316170 316170 316170
       1724 316171 316171 316171 316171
       1725 316173 316173 316173 316173
       1726 316174 316174 316174 316174
       1727 316184 316184 316184 316184
       1728 316189 316189 316189 316189
       1729 316191 316191 316191 316191
       1730 316197 316197 316197 316197
       1731 316205 316205 316205 316205
       1732 316209 316209 316209 316209
       1733 316210 316210 316210 316210
       1734 316212 316212 316212 316212
       1735 316213 316213 316213 316213
       1736 316226 316226 316226 316226
       1737 316229 316229 316229 316229
       1738 316232 316232 316232 316232
       1739 316246 316246 316246 316246
       1740 316250 316250 316250 316250
       1741 316253 316253 316253 316253
       1742 316254 316254 316254 316254
       1743 316266 316266 316266 316266
       1744 316271 316271 316271 316271
       1745 316273 316273 316273 316273
       1746 316287 316287 316287 316287
       1747 316291 316291 316291 316291
       1748 316294 316294 316294 316294
       1749 316295 316295 316295 316295
       1750 316307 316307 316307 316307
       1751 316312 316312 316312 316312
       1752 316314 316314 316314 316314
       1753 316328 316328 316328 316328
       1754 316332 316332 316332 316332
       1755 316335 316335 316335 316335
       1756 316336 316336 316336 316336
       1757 316349 316349 316349 316349
       1758 316354 316354 316354 316354
       1759 316356 316356 316356 316356
       1760 316370 316370 316370 316370
       1761 316374 316374 316374 316374
       1762 316377 316377 316377 316377
       1763 316378 316378 316378 316378
       1764 316389 316389 316389 316389
       1765 316394 316394 316394 316394
       1766 316396 316396 316396 316396
       1767 316410 316410 316410 316410
       1768 316414 316414 316414 316414
       1769 316417 316417 316417 316417
       1770 316418 316418 316418 316418
       1771 316428 316428 316428 316428
       1772 316431 316431 316431 316431
       1773 316436 316436 316436 316436
       1774 316437 316437 316437 316437
       1775 316451 316451 316451 316451
       1776 316455 316455 316455 316455
       1777 316458 316458 316458 316458
       1778 316459 316459 316459 316459
       1779 316468 316468 316468 316468
       1780 316470 316470 316470 316470
       1781 316473 316473 316473 316473
       1782 316478 316478 316478 316478
       1783 316480 316480 316480 316480
       1784 316494 316494 316494 316494
       1785 316498 316498 316498 316498
       1786 316501 316501 316501 316501
       1787 316502 316502 316502 316502
       1788 316512 316512 316512 316512
       1789 316518 316518 316518 316518
       1790 316519 316519 316519 316519
       1791 316533 316533 316533 316533
       1792 316537 316537 316537 316537
       1793 316539 316539 316539 316539
       1794 316540 316540 316540 316540
       1795 316556 316556 316556 316556
       1796 316557 316557 316557 316557
       1797 316569 316569 316569 316569
       1798 316573 316573 316573 316573
       1799 316576 316576 316576 316576
       1800 316577 316577 316577 316577
       1801 316586 316586 316586 316586
       1802 316591 316591 316591 316591
       1803 316593 316593 316593 316593
       1804 316600 316600 316600 316600
       1805 316607 316607 316607 316607
       1806 316611 316611 316611 316611
       1807 316614 316614 316614 316614
       1808 316615 316615 316615 316615
       1809 316624 316624 316624 316624
       1810 316626 316626 316626 316626
       1811 316627 316627 316627 316627
       1812 316632 316632 316632 316632
       1813 316639 316639 316639 316639
       1814 316647 316647 316647 316647
       1815 316651 316651 316651 316651
       1816 316654 316654 316654 316654
       1817 316655 316655 316655 316655
       1818 316663 316663 316663 316663
       1819 316665 316665 316665 316665
       1820 316670 316670 316670 316670
       1821 316672 316672 316672 316672
       1822 316678 316678 316678 316678
       1823 316686 316686 316686 316686
       1824 316690 316690 316690 316690
       1825 316693 316693 316693 316693
       1826 316694 316694 316694 316694
       1827 316701 316701 316701 316701
       1828 316702 316702 316702 316702
       1829 316703 316703 316703 316703
       1830 316708 316708 316708 316708
       1831 316710 316710 316710 316710
       1832 316716 316716 316716 316716
       1833 316724 316724 316724 316724
       1834 316728 316728 316728 316728
       1835 316731 316731 316731 316731
       1836 316732 316732 316732 316732
       1837 316739 316739 316739 316739
       1838 316740 316740 316740 316740
       1839 316742 316742 316742 316742
       1840 316743 316743 316743 316743
       1841 316748 316748 316748 316748
       1842 316750 316750 316750 316750
       1843 316756 316756 316756 316756
       1844 316763 316763 316763 316763
       1845 316767 316767 316767 316767
       1846 316770 316770 316770 316770
       1847 316771 316771 316771 316771
       1848 316778 316778 316778 316778
       1849 316781 316781 316781 316781
       1850 316782 316782 316782 316782
       1851 316787 316787 316787 316787
       1852 316789 316789 316789 316789
       1853 316790 316790 316790 316790
       1854 316796 316796 316796 316796
       1855 316803 316803 316803 316803
       1856 316807 316807 316807 316807
       1857 316810 316810 316810 316810
       1858 316811 316811 316811 316811
       1859 316818 316818 316818 316818
       1860 316820 316820 316820 316820
       1861 316821 316821 316821 316821
       1862 316822 316822 316822 316822
       1863 316827 316827 316827 316827
       1864 316829 316829 316829 316829
       1865 316830 316830 316830 316830
       1866 316836 316836 316836 316836
       1867 316843 316843 316843 316843
       1868 316847 316847 316847 316847
       1869 316850 316850 316850 316850
       1870 316851 316851 316851 316851
       1871 316858 316858 316858 316858
       1872 316862 316862 316862 316862
       1873 316864 316864 316864 316864
       1874 316869 316869 316869 316869
       1875 316871 316871 316871 316871
       1876 316872 316872 316872 316872
       1877 316877 316877 316877 316877
[...]
     number of failed beam   elements = 0
     number of failed shell  elements = 0
     number of failed tshell elements = 0
 f a i l e d   e l e m e n t   r e p o r t  time=  3.5275E-05
     number of failed solid  elements = 0
     number of failed beam   elements = 0
     number of failed shell  elements = 0
     number of failed tshell elements = 0
 f a i l e d   e l e m e n t   r e p o r t  time=  3.5612E-05
     number of failed solid  elements = 0
     number of failed beam   elements = 0
     number of failed shell  elements = 0
     number of failed tshell elements = 0
 f a i l e d   e l e m e n t   r e p o r t  time=  3.5780E-05
     number of failed solid  elements = 0
     number of failed beam   elements = 0
     number of failed shell  elements = 0
     number of failed tshell elements = 0
 f a i l e d   e l e m e n t   r e p o r t  time=  3.5946E-05
     number of failed solid  elements = 0
     number of failed beam   elements = 0
     number of failed shell  elements = 0
     number of failed tshell elements = 0
 f a i l e d   e l e m e n t   r e p o r t  time=  3.6053E-05
     number of failed solid  elements = 0
     number of failed beam   elements = 0
     number of failed shell  elements = 0
     number of failed tshell elements = 0
 f a i l e d   e l e m e n t   r e p o r t  time=  3.6097E-05
     number of failed solid  elements = 0
     number of failed beam   elements = 0
     number of failed shell  elements = 0
     number of failed tshell elements = 0
 f a i l e d   e l e m e n t   r e p o r t  time=  3.6324E-05
     number of failed solid  elements = 0
     number of failed beam   elements = 0
     number of failed shell  elements = 0
     number of failed tshell elements = 0
 f a i l e d   e l e m e n t   r e p o r t  time=  3.6849E-05
     number of failed solid  elements = 0
     number of failed beam   elements = 0
     number of failed shell  elements = 0
     number of failed tshell elements = 0
 f a i l e d   e l e m e n t   r e p o r t  time=  3.6934E-05
     number of failed solid  elements = 0
     number of failed beam   elements = 0
     number of failed shell  elements = 0
     number of failed tshell elements = 0
 f a i l e d   e l e m e n t   r e p o r t  time=  3.7004E-05
     number of failed solid  elements = 0
     number of failed beam   elements = 0
     number of failed shell  elements = 0
     number of failed tshell elements = 0
 f a i l e d   e l e m e n t   r e p o r t  time=  3.7129E-05
     number of failed solid  elements = 0
     number of failed beam   elements = 0
     number of failed shell  elements = 0
     number of failed tshell elements = 0
 f a i l e d   e l e m e n t   r e p o r t  time=  3.7382E-05
     number of failed solid  elements = 0
     number of failed beam   elements = 0
     number of failed shell  elements = 0
     number of failed tshell elements = 0
 f a i l e d   e l e m e n t   r e p o r t  time=  3.7475E-05
     number of failed solid  elements = 0
     number of failed beam   elements = 0
     number of failed shell  elements = 0
     number of failed tshell elements = 0
 f a i l e d   e l e m e n t   r e p o r t  time=  3.7523E-05
     number of failed solid  elements = 0
     number of failed beam   elements = 0
     number of failed shell  elements = 0
     number of failed tshell elements = 0
 f a i l e d   e l e m e n t   r e p o r t  time=  3.7636E-05
     number of failed solid  elements = 0
     number of failed beam   elements = 0
     number of failed shell  elements = 0
     number of failed tshell elements = 0
 f a i l e d   e l e m e n t   r e p o r t  time=  3.7727E-05
     number of failed solid  elements = 0
     number of failed beam   elements = 0
     number of failed shell  elements = 0
     number of failed tshell elements = 0
 f a i l e d   e l e m e n t   r e p o r t  time=  3.7744E-05
     number of failed solid  elements = 0
     number of failed beam   elements = 0
     number of failed shell  elements = 0
     number of failed tshell elements = 0
 f a i l e d   e l e m e n t   r e p o r t  time=  3.7800E-05
     number of failed solid  elements = 0
     number of failed beam   elements = 0
     number of failed shell  elements = 0
     number of failed tshell elements = 0
 f a i l e d   e l e m e n t   r e p o r t  time=  3.8123E-05
     number of failed solid  elements = 0
     number of failed beam   elements = 0
     number of failed shell  elements = 0
     number of failed tshell elements = 0
 f a i l e d   e l e m e n t   r e p o r t  time=  3.8186E-05
     number of failed solid  elements = 0
     number of failed beam   elements = 0
     number of failed shell  elements = 0
     number of failed tshell elements = 0
 f a i l e d   e l e m e n t   r e p o r t  time=  3.8309E-05
     number of failed solid  elements = 0
     number of failed beam   elements = 0
     number of failed shell  elements = 0
     number of failed tshell elements = 0
 f a i l e d   e l e m e n t   r e p o r t  time=  3.8402E-05
     number of failed solid  elements = 0
     number of failed beam   elements = 0
     number of failed shell  elements = 0
     number of failed tshell elements = 0
 f a i l e d   e l e m e n t   r e p o r t  time=  3.8478E-05
     number of failed solid  elements = 0
     number of failed beam   elements = 0
     number of failed shell  elements = 0
     number of failed tshell elements = 0
 f a i l e d   e l e m e n t   r e p o r t  time=  3.8513E-05
     number of failed solid  elements = 0
     number of failed beam   elements = 0
     number of failed shell  elements = 0
     number of failed tshell elements = 0
 f a i l e d   e l e m e n t   r e p o r t  time=  3.8542E-05
     number of failed solid  elements = 0
     number of failed beam   elements = 0
     number of failed shell  elements = 0
     number of failed tshell elements = 0
 f a i l e d   e l e m e n t   r e p o r t  time=  3.8564E-05
     number of failed solid  elements = 0
     number of failed beam   elements = 0
     number of failed shell  elements = 0
     number of failed tshell elements = 0
 f a i l e d   e l e m e n t   r e p o r t  time=  3.8623E-05
     number of failed solid  elements = 0
     number of failed beam   elements = 0
     number of failed shell  elements = 0
     number of failed tshell elements = 0
 f a i l e d   e l e m e n t   r e p o r t  time=  3.8631E-05
     number of failed solid  elements = 0
     number of failed beam   elements = 0
     number of failed shell  elements = 0
     number of failed tshell elements = 0
 f a i l e d   e l e m e n t   r e p o r t  time=  3.8671E-05
     number of failed solid  elements = 0
     number of failed beam   elements = 0
     number of failed shell  elements = 0
     number of failed tshell elements = 0
 f a i l e d   e l e m e n t   r e p o r t  time=  3.8704E-05
     number of failed solid  elements = 0
     number of failed beam   elements = 0
     number of failed shell  elements = 0
     number of failed tshell elements = 0
 f a i l e d   e l e m e n t   r e p o r t  time=  3.8743E-05
     number of failed solid  elements = 0
     number of failed beam   elements = 0
     number of failed shell  elements = 0
     number of failed tshell elements = 0
 f a i l e d   e l e m e n t   r e p o r t  time=  3.9755E-05
     number of failed solid  elements = 0
     number of failed beam   elements = 0
     number of failed shell  elements = 0
     number of failed tshell elements = 0
 f a i l e d   e l e m e n t   r e p o r t  time=  3.9760E-05
     number of failed solid  elements = 0
     number of failed beam   elements = 0
     number of failed shell  elements = 0
     number of failed tshell elements = 0
 f a i l e d   e l e m e n t   r e p o r t  time=  3.9850E-05
     number of failed solid  elements = 0
     number of failed beam   elements = 0
     number of failed shell  elements = 0
     number of failed tshell elements = 0
 f a i l e d   e l e m e n t   r e p o r t  time=  3.9892E-05
     number of failed solid  elements = 0
     number of failed beam   elements = 0
     number of failed shell  elements = 0
     number of failed tshell elements = 0
 f a i l e d   e l e m e n t   r e p o r t  time=  4.0048E-05
     number of failed solid  elements = 0
     number of failed beam   elements = 0
     number of failed shell  elements = 0
     number of failed tshell elements = 0
 f a i l e d   e l e m e n t   r e p o r t  time=  4.0127E-05
     number of failed solid  elements = 0
     number of failed beam   elements = 0
     number of failed shell  elements = 0
     number of failed tshell elements = 0
 f a i l e d   e l e m e n t   r e p o r t  time=  4.0463E-05
     number of failed solid  elements = 0
     number of failed beam   elements = 0
     number of failed shell  elements = 0
     number of failed tshell elements = 0
 f a i l e d   e l e m e n t   r e p o r t  time=  4.1174E-05
     number of failed solid  elements = 0
     number of failed beam   elements = 0
     number of failed shell  elements = 0
     number of failed tshell elements = 0
 f a i l e d   e l e m e n t   r e p o r t  time=  4.1199E-05
     number of failed solid  elements = 0
     number of failed beam   elements = 0
     number of failed shell  elements = 0
     number of failed tshell elements = 0
 f a i l e d   e l e m e n t   r e p o r t  time=  4.2027E-05
     number of failed solid  elements = 0
     number of failed beam   elements = 0
     number of failed shell  elements = 0
     number of failed tshell elements = 0
 f a i l e d   e l e m e n t   r e p o r t  time=  4.2049E-05
     number of failed solid  elements = 0
     number of failed beam   elements = 0
     number of failed shell  elements = 0
     number of failed tshell elements = 0
 f a i l e d   e l e m e n t   r e p o r t  time=  4.2130E-05
     number of failed solid  elements = 0
     number of failed beam   elements = 0
     number of failed shell  elements = 0
     number of failed tshell elements = 0
 f a i l e d   e l e m e n t   r e p o r t  time=  4.3620E-05
     number of failed solid  elements = 0
     number of failed beam   elements = 0
     number of failed shell  elements = 0
     number of failed tshell elements = 0
 f a i l e d   e l e m e n t   r e p o r t  time=  4.3674E-05
     number of failed solid  elements = 0
     number of failed beam   elements = 0
     number of failed shell  elements = 0
     number of failed tshell elements = 0
 f a i l e d   e l e m e n t   r e p o r t  time=  4.3720E-05
     number of failed solid  elements = 0
     number of failed beam   elements = 0
     number of failed shell  elements = 0
     number of failed tshell elements = 0
 f a i l e d   e l e m e n t   r e p o r t  time=  4.3763E-05
     number of failed solid  elements = 0
     number of failed beam   elements = 0
     number of failed shell  elements = 0
     number of failed tshell elements = 0
 f a i l e d   e l e m e n t   r e p o r t  time=  4.3810E-05
     number of failed solid  elements = 0
     number of failed beam   elements = 0
     number of failed shell  elements = 0
     number of failed tshell elements = 0
 f a i l e d   e l e m e n t   r e p o r t  time=  4.8840E-05
     number of failed solid  elements = 0
     number of failed beam   elements = 0
     number of failed shell  elements = 0
     number of failed tshell elements = 0
 f a i l e d   e l e m e n t   r e p o r t  time=  4.9582E-05
     number of failed solid  elements = 0
     number of failed beam   elements = 0
     number of failed shell  elements = 0
     number of failed tshell elements = 0
 f a i l e d   e l e m e n t   r e p o r t  time=  5.2612E-05
     number of failed solid  elements = 0
     number of failed beam   elements = 0
     number of failed shell  elements = 0
     number of failed tshell elements = 0
 f a i l e d   e l e m e n t   r e p o r t  time=  5.5406E-05
     number of failed solid  elements = 0
     number of failed beam   elements = 0
     number of failed shell  elements = 0
     number of failed tshell elements = 0
 f a i l e d   e l e m e n t   r e p o r t  time=  5.6476E-05
     number of failed solid  elements = 0
     number of failed beam   elements = 0
     number of failed shell  elements = 0
     number of failed tshell elements = 0
 f a i l e d   e l e m e n t   r e p o r t  time=  5.7503E-05
     number of failed solid  elements = 0
     number of failed beam   elements = 0
     number of failed shell  elements = 0
     number of failed tshell elements = 0
 f a i l e d   e l e m e n t   r e p o r t  time=  5.7929E-05
     number of failed solid  elements = 0
     number of failed beam   elements = 0
     number of failed shell  elements = 0
     number of failed tshell elements = 0
 f a i l e d   e l e m e n t   r e p o r t  time=  5.8590E-05
     number of failed solid  elements = 0
     number of failed beam   elements = 0
     number of failed shell  elements = 0
     number of failed tshell elements = 0

 S t o r a g e   a l l o c a t i o n   

 Memory required to complete solution   :     279K
 Additional dynamically allocated memory:      30M
                                   Total:      30M


 P r o c e s s o r   #         3

 T i m i n g   i n f o r m a t i o n
                        CPU(seconds)   %CPU  Clock(seconds) %Clock
  ----------------------------------------------------------------
  Keyword Processing ... 9.4910E-01    0.30     9.5301E-01    0.30
  MPP Decomposition .... 1.4248E+00    0.46     1.6825E+00    0.54
    Init Proc .......... 1.2328E+00    0.40     1.2375E+00    0.39
    Decomposition ...... 8.6457E-02    0.03     9.6061E-02    0.03
    Translation ........ 1.0555E-01    0.03     3.4889E-01    0.11
  Initialization ....... 2.3184E-01    0.07     3.8649E-01    0.12
    Init Proc Phase 1 .. 1.0316E-01    0.03     1.1908E-01    0.04
    Init Proc Phase 2 .. 1.2663E-02    0.00     3.9518E-02    0.01
  Init solver .......... 6.9845E-04    0.00     4.5400E-03    0.00
  Element processing ... 1.2791E+02   41.01     1.2857E+02   40.92
    Solids ............. 1.2231E+02   39.22     1.2293E+02   39.12
    E Other ............ 1.0627E-01    0.03     1.0643E-01    0.03
  Binary databases ..... 5.7655E-01    0.18     5.8495E-01    0.19
  ASCII database ....... 2.0127E+00    0.65     2.0277E+00    0.65
  Contact algorithm .... 5.5306E+01   17.73     5.5587E+01   17.69
    Interf. ID         3 1.2908E+01    4.14     1.2972E+01    4.13
    Interf. ID         2 3.5442E+01   11.36     3.5622E+01   11.34
  Rigid Bodies ......... 3.2512E-01    0.10     3.2657E-01    0.10
  DEM .................. 2.0832E+01    6.68     2.0933E+01    6.66
    DEM self contact ... 2.0211E+01    6.48     2.0311E+01    6.46
  Time step size ....... 6.0630E+01   19.44     6.0898E+01   19.38
  Group force file ..... 6.5030E-02    0.02     7.6289E-02    0.02
  Others ............... 1.8331E+00    0.59     2.1260E+00    0.68
    Force Sharing ...... 1.3259E+00    0.43     1.3301E+00    0.42
  Misc. 1 .............. 2.2983E+01    7.37     2.3115E+01    7.36
    Scale Masses ....... 2.2922E-02    0.01     2.2789E-02    0.01
    Force Constraints .. 5.0992E-02    0.02     5.1362E-02    0.02
    Force to Accel ..... 2.3031E+00    0.74     2.3096E+00    0.73
    Constraint Sharing . 5.0342E-02    0.02     5.0799E-02    0.02
    Update RB nodes .... 5.8355E-02    0.02     6.0005E-02    0.02
  Misc. 2 .............. 4.9944E+00    1.60     5.0117E+00    1.59
  Misc. 3 .............. 1.0521E+01    3.37     1.0635E+01    3.38
  Misc. 4 .............. 1.3046E+00    0.42     1.3164E+00    0.42
    Timestep Init ...... 9.0499E-01    0.29     9.0427E-01    0.29
    Apply Loads ........ 3.3250E-01    0.11     3.4134E-01    0.11
  ----------------------------------------------------------------
  T o t a l s            3.1190E+02  100.00     3.1423E+02  100.00


 A v e r a g e s

 T i m i n g   i n f o r m a t i o n
                        CPU(seconds)   %CPU  Clock(seconds) %Clock
  ----------------------------------------------------------------
  Keyword Processing ... 7.6648E-01    0.25     9.5298E-01    0.30
    KW Reading ......... 1.9078E-02    0.01     3.3349E-02    0.01
    KW Writing ......... 1.1554E-02    0.00     5.5970E-02    0.02
  MPP Decomposition .... 1.1705E+00    0.38     1.6831E+00    0.54
    Init Proc .......... 1.0025E+00    0.32     1.2376E+00    0.39
    Decomposition ...... 6.9621E-02    0.02     9.5905E-02    0.03
    Translation ........ 9.8263E-02    0.03     3.4946E-01    0.11
  Initialization ....... 2.1642E-01    0.07     3.8626E-01    0.12
    Init Proc Phase 1 .. 1.0117E-01    0.03     1.1906E-01    0.04
    Init Proc Phase 2 .. 1.2657E-02    0.00     3.9517E-02    0.01
  Init solver .......... 6.2207E-04    0.00     4.2085E-03    0.00
  Element processing ... 1.4168E+02   45.78     1.4248E+02   45.34
    Solids ............. 1.3612E+02   43.99     1.3686E+02   43.55
    E Other ............ 1.3874E-01    0.04     1.3931E-01    0.04
  Binary databases ..... 5.3904E-01    0.17     5.6734E-01    0.18
  ASCII database ....... 2.2738E+00    0.73     4.2988E+00    1.37
  Contact algorithm .... 5.6462E+01   18.25     5.6771E+01   18.07
    Interf. ID         3 1.3377E+01    4.32     1.3452E+01    4.28
    Interf. ID         2 3.6548E+01   11.81     3.6744E+01   11.69
  Rigid Bodies ......... 2.6022E-01    0.08     2.6175E-01    0.08
  DEM .................. 1.9749E+01    6.38     1.9850E+01    6.32
    DEM self contact ... 1.9138E+01    6.18     1.9238E+01    6.12
  Time step size ....... 4.6745E+01   15.11     4.6968E+01   14.95
  Group force file ..... 5.5061E-02    0.02     6.3756E-02    0.02
  Others ............... 2.3080E+00    0.75     2.3937E+00    0.76
    Force Sharing ...... 1.8722E+00    0.60     1.8791E+00    0.60
  Misc. 1 .............. 2.2686E+01    7.33     2.2856E+01    7.27
    Scale Masses ....... 2.3502E-02    0.01     2.3034E-02    0.01
    Force Constraints .. 3.8688E-02    0.01     3.9531E-02    0.01
    Force to Accel ..... 2.2191E+00    0.72     2.2260E+00    0.71
    Constraint Sharing . 4.0013E-02    0.01     4.0732E-02    0.01
    Update RB nodes .... 4.9558E-02    0.02     5.1239E-02    0.02
  Misc. 2 .............. 5.1326E+00    1.66     5.1554E+00    1.64
  Misc. 3 .............. 8.0918E+00    2.61     8.2019E+00    2.61
  Misc. 4 .............. 1.3227E+00    0.43     1.3356E+00    0.43
    Timestep Init ...... 9.5245E-01    0.31     9.5226E-01    0.30
    Apply Loads ........ 2.9860E-01    0.10     3.0763E-01    0.10
  ----------------------------------------------------------------
  T o t a l s            3.0946E+02  100.00     3.1423E+02  100.00

 Problem time       =    6.0001E-05
 Problem cycle      =     58329
 Total CPU time     =       309 seconds (   0 hours  5 minutes  9 seconds)
 CPU time per zone cycle  =        447.878 nanoseconds
 Clock time per zone cycle=        454.237 nanoseconds

 Parallel execution with      4 MPP proc
 NLQ used/max                64/    64

  C P U   T i m i n g   i n f o r m a t i o n

  Processor   Hostname                              CPU/Avg_CPU  CPU(seconds)
  ---------------------------------------------------------------------------
  #       0   compute-0-3                               0.97629   3.0219E+02
  #       1   compute-0-3                               1.00779   3.1194E+02
  #       2   compute-0-3                               1.00799   3.1200E+02
  #       3   compute-0-3                               1.00792   3.1198E+02
  ---------------------------------------------------------------------------
  T o t a l s                                                     1.2381E+03


 Start time   04/08/2022 12:08:51  
 End time     04/08/2022 12:14:05  
 Elapsed time     314 seconds for   58329 cycles using     4 MPP procs
             (      0 hour   5 minutes 14 seconds)

 N o r m a l    t e r m i n a t i o n                          04/08/22 12:14:05
