      Date: 04/08/2022      Time: 12:08:51  

     ___________________________________________________
     |                                                 |
     |  Livermore Software Technology, LLC             |
     |                                                 |
     |  7374 Las Positas Road                          |
     |  Livermore, CA 94551                            |
     |  Tel: (925) 449-2500  Fax: (925) 449-2507       |
     |  www.lstc.com                                   |
     |_________________________________________________|
     |                                                 |
     |  LS-DYNA, A Program for Nonlinear Dynamic       |
     |  Analysis of Structures in Three Dimensions     |
     |  Version : mpp d R12.0.0   Date: 06/19/2020     |
     |  Revision: 148931          Time: 17:26:40       |
     |                                                 |
     |  Features enabled in this version:              |
     |    Distributed Memory Parallel                  |
     |    CESE CHEMISTRY EM ICFD STOCHASTIC_PARTICLES  |
     |    FFTW (multi-dimensional FFTW Library)        |
     |    ANSYS License (ANSYS202)                     |
     |    BigID  option                                |
     |                                                 |
     |  Licensed to:                                   |
     |  Issued by  : Pascale.SaneGuttin_02092022       |
     |                                                 |
     |  Platform   : Intel-MPI 2018 Xeon64             |
     |  OS Level   : Linux CentOS 6.5 uom              |
     |  Compiler   : Intel Fortran Compiler 16.0 AVX-2 |
     |  Hostname   : compute-0-3                       |
     |  Precision  : Double precision (I8R8)           |
     |  SVN Version: 148978                            |
     |                                                 |
     |  Unauthorized use infringes LST copyrights      |
     |_________________________________________________|


 Input file: DynaOpt.key                                                                     

 The native file format       : 64-bit small endian

 LS-DYNA will perform a structural only analysis 

 allocating  memory to   100000000 d     1985258 hex ownership chunk
 contracting memory to           7 d     1991132 material sort chunk
 expanding   memory to          12 d     2060507 nodal force sharing lists 1
 expanding   memory to          18 d     2043395 mat scratch
 expanding   memory to          19 d     3118471 tied nodes scratch
 expanding   memory to          22 d     3118471 tied node scratch
 contracting memory to          18 d     3118471 nodal rigid body scratch
 expanding   memory to        1298 d     3118471 DES sld2des scratch
 expanding   memory to       19798 d     3118471 DES sld2des scratch
 contracting memory to        2450 d     3118471 DES sld2des scratch
 contracting memory to          18 d     3118471 spring/damper scratch
 contracting memory to           1 d     2108658 Performing Decomposition -- Phase 3
 LS-DYNA keyword deck by LS-PrePost                                      
                         ls-dyna mpp.148931 d           date 06/19/2020
 expanding   memory to        4305 d     2108658 material, node and element data
 expanding   memory to        4399 d     2108677 mat add general damage 0
 expanding   memory to        4459 d     2108677 material added airbag porosity leakage 
 expanding   memory to        4477 d     2108677 material properties
 expanding   memory to        4495 d     2149559 element data for composite material
 expanding   memory to        4510 d     2506000 gradient of damage data
 expanding   memory to       18766 d     2550064 user control for contact interfaces
 contracting memory to       18752 d     2550064 thermal expansion 0
 expanding   memory to       18758 d     2550064 state of charge expansion 0
 expanding   memory to       18760 d     2550064 cross-sectional force definitions 0
 expanding   memory to       29225 d     2550100 temp index array for node sorting
 contracting memory to       18760 d     2550100 just because?
 expanding   memory to       21697 d     2571048 arbitrary element numbering input
 contracting memory to       18780 d    27570059 spc cards
 contracting memory to       18767 d    27570059 d3thdt storage
 expanding   memory to       18768 d    27660841 process element material data
 expanding   memory to       20769 d    27660835 load curve data
 contracting memory to       18775 d    27660835 user_define_loading_set
 expanding   memory to       18975 d    27660835 regularize time history data
 contracting memory to       18779 d    27660835 *DEFINE_ELEMENT_DEATH
 expanding   memory to       19034 d    27640171 contact interfaces
 expanding   memory to       40964 d    27640171 implicit contact 1
 expanding   memory to       64420 d    27640171 implicit contact 2
 contracting memory to       20034 d    27914864 contact segment data 1
 expanding   memory to       74925 d    28179827 contact segment data 3
 expanding   memory to      168893 d    28050932 read contacts, eroding check
 expanding   memory to      259963 d    28050932 eroding neighbors 2
 expanding   memory to      280523 d    28050932 eroding neighbors
 contracting memory to      116045 d    28521849 contact definition
 expanding   memory to      116051 d    28678884 contact history
 expanding   memory to      116105 d    28764250 rigid body
 expanding   memory to      116123 d    28764864 rbe2 scratch
 contracting memory to      116109 d    28828114 contact friction
 expanding   memory to      116199 d    28828120 joints
 expanding   memory to      118259 d    28828120 de sld2des
 expanding   memory to      118299 d    28836931 discrete elements regions
 expanding   memory to      118399 d    29053447 rigid bodies for disp. termination
 
 *** Warning 40859 (SOL+859)
     Cannot find elements of slave segment of interface 2
 deleted segment ID          n1          n2          n3          n4
       1 310642 310642 310642 310642
       2 310647 310647 310647 310647
       3 310649 310649 310649 310649
       4 310651 310651 310651 310651
       5 310656 310656 310656 310656
       6 310658 310658 310658 310658
       7 310660 310660 310660 310660
       8 310661 310661 310661 310661
       9 310662 310662 310662 310662
       10 310665 310665 310665 310665
       11 310669 310669 310669 310669
       12 310670 310670 310670 310670
       13 310671 310671 310671 310671
       14 310672 310672 310672 310672
       15 310676 310676 310676 310676
       16 310678 310678 310678 310678
       17 310683 310683 310683 310683
       18 310686 310686 310686 310686
       19 310688 310688 310688 310688
       20 310693 310693 310693 310693
       21 310695 310695 310695 310695
       22 310697 310697 310697 310697
       23 310698 310698 310698 310698
       24 310699 310699 310699 310699
       25 310702 310702 310702 310702
       26 310706 310706 310706 310706
       27 310707 310707 310707 310707
       28 310708 310708 310708 310708
       29 310709 310709 310709 310709
       30 310713 310713 310713 310713
       31 310716 310716 310716 310716
       32 310717 310717 310717 310717
       33 310720 310720 310720 310720
       34 310725 310725 310725 310725
       35 310728 310728 310728 310728
       36 310730 310730 310730 310730
       37 310735 310735 310735 310735
       38 310737 310737 310737 310737
       39 310739 310739 310739 310739
       40 310740 310740 310740 310740
       41 310741 310741 310741 310741
       42 310744 310744 310744 310744
       43 310748 310748 310748 310748
       44 310749 310749 310749 310749
       45 310750 310750 310750 310750
       46 310751 310751 310751 310751
       47 310760 310760 310760 310760
       48 310763 310763 310763 310763
       49 310768 310768 310768 310768
       50 310771 310771 310771 310771
       51 310773 310773 310773 310773
       52 310778 310778 310778 310778
       53 310780 310780 310780 310780
       54 310782 310782 310782 310782
       55 310783 310783 310783 310783
       56 310784 310784 310784 310784
       57 310787 310787 310787 310787
       58 310791 310791 310791 310791
       59 310792 310792 310792 310792
       60 310793 310793 310793 310793
       61 310794 310794 310794 310794
       62 310802 310802 310802 310802
       63 310803 310803 310803 310803
       64 310806 310806 310806 310806
       65 310811 310811 310811 310811
       66 310814 310814 310814 310814
       67 310816 310816 310816 310816
       68 310821 310821 310821 310821
       69 310823 310823 310823 310823
       70 310825 310825 310825 310825
       71 310826 310826 310826 310826
       72 310827 310827 310827 310827
       73 310830 310830 310830 310830
       74 310834 310834 310834 310834
       75 310835 310835 310835 310835
       76 310836 310836 310836 310836
       77 310837 310837 310837 310837
       78 310841 310841 310841 310841
       79 310844 310844 310844 310844
       80 310848 310848 310848 310848
       81 310849 310849 310849 310849
       82 310852 310852 310852 310852
       83 310857 310857 310857 310857
       84 310860 310860 310860 310860
       85 310862 310862 310862 310862
       86 310867 310867 310867 310867
       87 310868 310868 310868 310868
       88 310869 310869 310869 310869
       89 310870 310870 310870 310870
       90 310871 310871 310871 310871
       91 310874 310874 310874 310874
       92 310877 310877 310877 310877
       93 310878 310878 310878 310878
       94 310879 310879 310879 310879
       95 310880 310880 310880 310880
       96 310885 310885 310885 310885
       97 310888 310888 310888 310888
       98 310889 310889 310889 310889
       99 310891 310891 310891 310891
       100 310896 310896 310896 310896
       101 310900 310900 310900 310900
       102 310904 310904 310904 310904
       103 310906 310906 310906 310906
       104 310908 310908 310908 310908
       105 310909 310909 310909 310909
       106 310910 310910 310910 310910
       107 310912 310912 310912 310912
       108 310916 310916 310916 310916
       109 310917 310917 310917 310917
       110 310918 310918 310918 310918
       111 310919 310919 310919 310919
       112 310923 310923 310923 310923
       113 310924 310924 310924 310924
       114 310925 310925 310925 310925
       115 310928 310928 310928 310928
       116 310933 310933 310933 310933
       117 310940 310940 310940 310940
       118 310943 310943 310943 310943
       119 310945 310945 310945 310945
       120 310947 310947 310947 310947
       121 310948 310948 310948 310948
       122 310949 310949 310949 310949
       123 310952 310952 310952 310952
       124 310956 310956 310956 310956
       125 310957 310957 310957 310957
       126 310958 310958 310958 310958
       127 310959 310959 310959 310959
       128 310967 310967 310967 310967
       129 310972 310972 310972 310972
       130 310973 310973 310973 310973
       131 310976 310976 310976 310976
       132 310979 310979 310979 310979
       133 310983 310983 310983 310983
       134 310985 310985 310985 310985
       135 310986 310986 310986 310986
       136 310987 310987 310987 310987
       137 310990 310990 310990 310990
       138 310994 310994 310994 310994
       139 310995 310995 310995 310995
       140 310996 310996 310996 310996
       141 310997 310997 310997 310997
       142 311004 311004 311004 311004
       143 311005 311005 311005 311005
       144 311010 311010 311010 311010
       145 311013 311013 311013 311013
       146 311014 311014 311014 311014
       147 311017 311017 311017 311017
       148 311020 311020 311020 311020
       149 311024 311024 311024 311024
       150 311025 311025 311025 311025
       151 311026 311026 311026 311026
       152 311029 311029 311029 311029
       153 311033 311033 311033 311033
       154 311034 311034 311034 311034
       155 311035 311035 311035 311035
       156 311036 311036 311036 311036
       157 311044 311044 311044 311044
       158 311045 311045 311045 311045
       159 311049 311049 311049 311049
       160 311054 311054 311054 311054
       161 311056 311056 311056 311056
       162 311057 311057 311057 311057
       163 311060 311060 311060 311060
       164 311063 311063 311063 311063
       165 311067 311067 311067 311067
       166 311068 311068 311068 311068
       167 311069 311069 311069 311069
       168 311072 311072 311072 311072
       169 311076 311076 311076 311076
       170 311077 311077 311077 311077
       171 311078 311078 311078 311078
       172 311079 311079 311079 311079
       173 311085 311085 311085 311085
       174 311093 311093 311093 311093
       175 311096 311096 311096 311096
       176 311099 311099 311099 311099
       177 311103 311103 311103 311103
       178 311104 311104 311104 311104
       179 311105 311105 311105 311105
       180 311108 311108 311108 311108
       181 311112 311112 311112 311112
       182 311113 311113 311113 311113
       183 311114 311114 311114 311114
       184 311115 311115 311115 311115
       185 311121 311121 311121 311121
       186 311123 311123 311123 311123
       187 311127 311127 311127 311127
       188 311128 311128 311128 311128
       189 311132 311132 311132 311132
       190 311138 311138 311138 311138
       191 311142 311142 311142 311142
       192 311143 311143 311143 311143
       193 311144 311144 311144 311144
       194 311147 311147 311147 311147
       195 311151 311151 311151 311151
       196 311152 311152 311152 311152
       197 311153 311153 311153 311153
       198 311154 311154 311154 311154
       199 311158 311158 311158 311158
       200 311161 311161 311161 311161
       201 311166 311166 311166 311166
       202 311167 311167 311167 311167
       203 311170 311170 311170 311170
       204 311173 311173 311173 311173
       205 311176 311176 311176 311176
       206 311181 311181 311181 311181
       207 311182 311182 311182 311182
       208 311185 311185 311185 311185
       209 311189 311189 311189 311189
       210 311190 311190 311190 311190
       211 311191 311191 311191 311191
       212 311192 311192 311192 311192
       213 311199 311199 311199 311199
       214 311204 311204 311204 311204
       215 311207 311207 311207 311207
       216 311208 311208 311208 311208
       217 311211 311211 311211 311211
       218 311214 311214 311214 311214
       219 311219 311219 311219 311219
       220 311220 311220 311220 311220
       221 311223 311223 311223 311223
       222 311227 311227 311227 311227
       223 311228 311228 311228 311228
       224 311229 311229 311229 311229
       225 311230 311230 311230 311230
       226 311235 311235 311235 311235
       227 311240 311240 311240 311240
       228 311243 311243 311243 311243
       229 311246 311246 311246 311246
       230 311249 311249 311249 311249
       231 311254 311254 311254 311254
       232 311255 311255 311255 311255
       233 311258 311258 311258 311258
       234 311262 311262 311262 311262
       235 311263 311263 311263 311263
       236 311264 311264 311264 311264
       237 311265 311265 311265 311265
       238 311270 311270 311270 311270
       239 311273 311273 311273 311273
       240 311278 311278 311278 311278
       241 311286 311286 311286 311286
       242 311290 311290 311290 311290
       243 311293 311293 311293 311293
       244 311298 311298 311298 311298
       245 311299 311299 311299 311299
       246 311302 311302 311302 311302
       247 311306 311306 311306 311306
       248 311307 311307 311307 311307
       249 311308 311308 311308 311308
       250 311309 311309 311309 311309
       251 311313 311313 311313 311313
       252 311321 311321 311321 311321
       253 311326 311326 311326 311326
       254 311333 311333 311333 311333
       255 311336 311336 311336 311336
       256 311340 311340 311340 311340
       257 311341 311341 311341 311341
       258 311344 311344 311344 311344
       259 311348 311348 311348 311348
       260 311349 311349 311349 311349
       261 311350 311350 311350 311350
       262 311351 311351 311351 311351
       263 311355 311355 311355 311355
       264 311359 311359 311359 311359
       265 311365 311365 311365 311365
       266 311369 311369 311369 311369
       267 311379 311379 311379 311379
       268 311384 311384 311384 311384
       269 311385 311385 311385 311385
       270 311388 311388 311388 311388
       271 311392 311392 311392 311392
       272 311393 311393 311393 311393
       273 311394 311394 311394 311394
       274 311395 311395 311395 311395
       275 311399 311399 311399 311399
       276 311401 311401 311401 311401
       277 311402 311402 311402 311402
       278 311407 311407 311407 311407
       279 311412 311412 311412 311412
       280 311416 311416 311416 311416
       281 311419 311419 311419 311419
       282 311422 311422 311422 311422
       283 311424 311424 311424 311424
       284 311427 311427 311427 311427
       285 311428 311428 311428 311428
       286 311431 311431 311431 311431
       287 311435 311435 311435 311435
       288 311436 311436 311436 311436
       289 311437 311437 311437 311437
       290 311438 311438 311438 311438
       291 311442 311442 311442 311442
       292 311447 311447 311447 311447
       293 311452 311452 311452 311452
       294 311456 311456 311456 311456
       295 311459 311459 311459 311459
       296 311460 311460 311460 311460
       297 311462 311462 311462 311462
       298 311464 311464 311464 311464
       299 311467 311467 311467 311467
       300 311468 311468 311468 311468
       301 311471 311471 311471 311471
       302 311475 311475 311475 311475
       303 311476 311476 311476 311476
       304 311477 311477 311477 311477
       305 311478 311478 311478 311478
       306 311482 311482 311482 311482
       307 311483 311483 311483 311483
       308 311486 311486 311486 311486
       309 311497 311497 311497 311497
       310 311498 311498 311498 311498
       311 311500 311500 311500 311500
       312 311502 311502 311502 311502
       313 311505 311505 311505 311505
       314 311513 311513 311513 311513
       315 311514 311514 311514 311514
       316 311515 311515 311515 311515
       317 311516 311516 311516 311516
       318 311520 311520 311520 311520
       319 311521 311521 311521 311521
       320 311528 311528 311528 311528
       321 311529 311529 311529 311529
       322 311537 311537 311537 311537
       323 311539 311539 311539 311539
       324 311541 311541 311541 311541
       325 311544 311544 311544 311544
       326 311552 311552 311552 311552
       327 311553 311553 311553 311553
       328 311554 311554 311554 311554
       329 311555 311555 311555 311555
       330 311559 311559 311559 311559
       331 311561 311561 311561 311561
       332 311564 311564 311564 311564
       333 311569 311569 311569 311569
       334 311570 311570 311570 311570
       335 311576 311576 311576 311576
       336 311577 311577 311577 311577
       337 311579 311579 311579 311579
       338 311581 311581 311581 311581
       339 311584 311584 311584 311584
       340 311592 311592 311592 311592
       341 311593 311593 311593 311593
       342 311594 311594 311594 311594
       343 311595 311595 311595 311595
       344 311601 311601 311601 311601
       345 311606 311606 311606 311606
       346 311609 311609 311609 311609
       347 311612 311612 311612 311612
       348 311613 311613 311613 311613
       349 311614 311614 311614 311614
       350 311616 311616 311616 311616
       351 311618 311618 311618 311618
       352 311621 311621 311621 311621
       353 311629 311629 311629 311629
       354 311630 311630 311630 311630
       355 311631 311631 311631 311631
       356 311632 311632 311632 311632
       357 311638 311638 311638 311638
       358 311643 311643 311643 311643
       359 311646 311646 311646 311646
       360 311649 311649 311649 311649
       361 311650 311650 311650 311650
       362 311651 311651 311651 311651
       363 311653 311653 311653 311653
       364 311655 311655 311655 311655
       365 311658 311658 311658 311658
       366 311666 311666 311666 311666
       367 311667 311667 311667 311667
       368 311668 311668 311668 311668
       369 311669 311669 311669 311669
       370 311674 311674 311674 311674
       371 311675 311675 311675 311675
       372 311677 311677 311677 311677
       373 311683 311683 311683 311683
       374 311686 311686 311686 311686
       375 311689 311689 311689 311689
       376 311690 311690 311690 311690
       377 311691 311691 311691 311691
       378 311693 311693 311693 311693
       379 311695 311695 311695 311695
       380 311698 311698 311698 311698
       381 311706 311706 311706 311706
       382 311707 311707 311707 311707
       383 311708 311708 311708 311708
       384 311709 311709 311709 311709
       385 311713 311713 311713 311713
       386 311716 311716 311716 311716
       387 311718 311718 311718 311718
       388 311722 311722 311722 311722
       389 311725 311725 311725 311725
       390 311728 311728 311728 311728
       391 311729 311729 311729 311729
       392 311730 311730 311730 311730
       393 311732 311732 311732 311732
       394 311734 311734 311734 311734
       395 311737 311737 311737 311737
       396 311745 311745 311745 311745
       397 311746 311746 311746 311746
       398 311747 311747 311747 311747
       399 311748 311748 311748 311748
       400 311755 311755 311755 311755
       401 311758 311758 311758 311758
       402 311763 311763 311763 311763
       403 311766 311766 311766 311766
       404 311769 311769 311769 311769
       405 311770 311770 311770 311770
       406 311771 311771 311771 311771
       407 311773 311773 311773 311773
       408 311775 311775 311775 311775
       409 311778 311778 311778 311778
       410 311786 311786 311786 311786
       411 311787 311787 311787 311787
       412 311788 311788 311788 311788
       413 311789 311789 311789 311789
       414 311793 311793 311793 311793
       415 311794 311794 311794 311794
       416 311796 311796 311796 311796
       417 311799 311799 311799 311799
       418 311803 311803 311803 311803
       419 311806 311806 311806 311806
       420 311809 311809 311809 311809
       421 311810 311810 311810 311810
       422 311811 311811 311811 311811
       423 311813 311813 311813 311813
       424 311815 311815 311815 311815
       425 311818 311818 311818 311818
       426 311826 311826 311826 311826
       427 311827 311827 311827 311827
       428 311828 311828 311828 311828
       429 311829 311829 311829 311829
       430 311833 311833 311833 311833
       431 311834 311834 311834 311834
       432 311835 311835 311835 311835
       433 311838 311838 311838 311838
       434 311842 311842 311842 311842
       435 311845 311845 311845 311845
       436 311848 311848 311848 311848
       437 311849 311849 311849 311849
       438 311850 311850 311850 311850
       439 311852 311852 311852 311852
       440 311853 311853 311853 311853
       441 311856 311856 311856 311856
       442 311864 311864 311864 311864
       443 311865 311865 311865 311865
       444 311866 311866 311866 311866
       445 311867 311867 311867 311867
       446 311871 311871 311871 311871
       447 311872 311872 311872 311872
       448 311875 311875 311875 311875
       449 311880 311880 311880 311880
       450 311883 311883 311883 311883
       451 311886 311886 311886 311886
       452 311887 311887 311887 311887
       453 311888 311888 311888 311888
       454 311891 311891 311891 311891
       455 311892 311892 311892 311892
       456 311895 311895 311895 311895
       457 311903 311903 311903 311903
       458 311904 311904 311904 311904
       459 311906 311906 311906 311906
       460 311911 311911 311911 311911
       461 311912 311912 311912 311912
       462 311916 311916 311916 311916
       463 311921 311921 311921 311921
       464 311924 311924 311924 311924
       465 311927 311927 311927 311927
       466 311928 311928 311928 311928
       467 311929 311929 311929 311929
       468 311932 311932 311932 311932
       469 311933 311933 311933 311933
       470 311936 311936 311936 311936
       471 311944 311944 311944 311944
       472 311945 311945 311945 311945
       473 311947 311947 311947 311947
       474 311955 311955 311955 311955
       475 311962 311962 311962 311962
       476 311965 311965 311965 311965
       477 311966 311966 311966 311966
       478 311967 311967 311967 311967
       479 311970 311970 311970 311970
       480 311971 311971 311971 311971
       481 311974 311974 311974 311974
       482 311982 311982 311982 311982
       483 311983 311983 311983 311983
       484 311985 311985 311985 311985
       485 311989 311989 311989 311989
       486 311990 311990 311990 311990
       487 311995 311995 311995 311995
       488 312000 312000 312000 312000
       489 312003 312003 312003 312003
       490 312006 312006 312006 312006
       491 312007 312007 312007 312007
       492 312008 312008 312008 312008
       493 312011 312011 312011 312011
       494 312014 312014 312014 312014
       495 312022 312022 312022 312022
       496 312023 312023 312023 312023
       497 312025 312025 312025 312025
       498 312032 312032 312032 312032
       499 312037 312037 312037 312037
       500 312041 312041 312041 312041
       501 312044 312044 312044 312044
       502 312047 312047 312047 312047
       503 312048 312048 312048 312048
       504 312049 312049 312049 312049
       505 312052 312052 312052 312052
       506 312055 312055 312055 312055
       507 312063 312063 312063 312063
       508 312064 312064 312064 312064
       509 312066 312066 312066 312066
       510 312074 312074 312074 312074
       511 312079 312079 312079 312079
       512 312081 312081 312081 312081
       513 312084 312084 312084 312084
       514 312085 312085 312085 312085
       515 312086 312086 312086 312086
       516 312090 312090 312090 312090
       517 312093 312093 312093 312093
       518 312101 312101 312101 312101
       519 312102 312102 312102 312102
       520 312104 312104 312104 312104
       521 312108 312108 312108 312108
       522 312112 312112 312112 312112
       523 312117 312117 312117 312117
       524 312120 312120 312120 312120
       525 312123 312123 312123 312123
       526 312124 312124 312124 312124
       527 312125 312125 312125 312125
       528 312129 312129 312129 312129
       529 312132 312132 312132 312132
       530 312134 312134 312134 312134
       531 312140 312140 312140 312140
       532 312141 312141 312141 312141
       533 312147 312147 312147 312147
       534 312152 312152 312152 312152
       535 312155 312155 312155 312155
       536 312160 312160 312160 312160
       537 312163 312163 312163 312163
       538 312166 312166 312166 312166
       539 312167 312167 312167 312167
       540 312168 312168 312168 312168
       541 312172 312172 312172 312172
       542 312175 312175 312175 312175
       543 312177 312177 312177 312177
       544 312183 312183 312183 312183
       545 312184 312184 312184 312184
       546 312191 312191 312191 312191
       547 312197 312197 312197 312197
       548 312201 312201 312201 312201
       549 312204 312204 312204 312204
       550 312207 312207 312207 312207
       551 312208 312208 312208 312208
       552 312209 312209 312209 312209
       553 312213 312213 312213 312213
       554 312216 312216 312216 312216
       555 312218 312218 312218 312218
       556 312224 312224 312224 312224
       557 312225 312225 312225 312225
       558 312234 312234 312234 312234
       559 312239 312239 312239 312239
       560 312242 312242 312242 312242
       561 312245 312245 312245 312245
       562 312246 312246 312246 312246
       563 312247 312247 312247 312247
       564 312251 312251 312251 312251
       565 312254 312254 312254 312254
       566 312256 312256 312256 312256
       567 312261 312261 312261 312261
       568 312262 312262 312262 312262
       569 312269 312269 312269 312269
       570 312272 312272 312272 312272
       571 312277 312277 312277 312277
       572 312280 312280 312280 312280
       573 312282 312282 312282 312282
       574 312283 312283 312283 312283
       575 312287 312287 312287 312287
       576 312290 312290 312290 312290
       577 312292 312292 312292 312292
       578 312298 312298 312298 312298
       579 312299 312299 312299 312299
       580 312308 312308 312308 312308
       581 312313 312313 312313 312313
       582 312316 312316 312316 312316
       583 312319 312319 312319 312319
       584 312320 312320 312320 312320
       585 312321 312321 312321 312321
       586 312325 312325 312325 312325
       587 312328 312328 312328 312328
       588 312330 312330 312330 312330
       589 312336 312336 312336 312336
       590 312337 312337 312337 312337
       591 312345 312345 312345 312345
       592 312350 312350 312350 312350
       593 312353 312353 312353 312353
       594 312356 312356 312356 312356
       595 312357 312357 312357 312357
       596 312358 312358 312358 312358
       597 312362 312362 312362 312362
       598 312365 312365 312365 312365
       599 312367 312367 312367 312367
       600 312373 312373 312373 312373
       601 312374 312374 312374 312374
       602 312383 312383 312383 312383
       603 312388 312388 312388 312388
       604 312390 312390 312390 312390
       605 312393 312393 312393 312393
       606 312394 312394 312394 312394
       607 312395 312395 312395 312395
       608 312399 312399 312399 312399
       609 312402 312402 312402 312402
       610 312404 312404 312404 312404
       611 312410 312410 312410 312410
       612 312411 312411 312411 312411
       613 312420 312420 312420 312420
       614 312425 312425 312425 312425
       615 312430 312430 312430 312430
       616 312431 312431 312431 312431
       617 312432 312432 312432 312432
       618 312436 312436 312436 312436
       619 312439 312439 312439 312439
       620 312441 312441 312441 312441
       621 312447 312447 312447 312447
       622 312448 312448 312448 312448
       623 312457 312457 312457 312457
       624 312462 312462 312462 312462
       625 312468 312468 312468 312468
       626 312469 312469 312469 312469
       627 312470 312470 312470 312470
       628 312474 312474 312474 312474
       629 312477 312477 312477 312477
       630 312479 312479 312479 312479
       631 312485 312485 312485 312485
       632 312486 312486 312486 312486
       633 312493 312493 312493 312493
       634 312500 312500 312500 312500
       635 312506 312506 312506 312506
       636 312507 312507 312507 312507
       637 312508 312508 312508 312508
       638 312512 312512 312512 312512
       639 312515 312515 312515 312515
       640 312517 312517 312517 312517
       641 312523 312523 312523 312523
       642 312524 312524 312524 312524
       643 312533 312533 312533 312533
       644 312538 312538 312538 312538
       645 312544 312544 312544 312544
       646 312545 312545 312545 312545
       647 312546 312546 312546 312546
       648 312550 312550 312550 312550
       649 312553 312553 312553 312553
       650 312555 312555 312555 312555
       651 312561 312561 312561 312561
       652 312562 312562 312562 312562
       653 312572 312572 312572 312572
       654 312574 312574 312574 312574
       655 312579 312579 312579 312579
       656 312585 312585 312585 312585
       657 312586 312586 312586 312586
       658 312587 312587 312587 312587
       659 312591 312591 312591 312591
       660 312594 312594 312594 312594
       661 312596 312596 312596 312596
       662 312602 312602 312602 312602
       663 312603 312603 312603 312603
       664 312612 312612 312612 312612
       665 312613 312613 312613 312613
       666 312615 312615 312615 312615
       667 312619 312619 312619 312619
       668 312620 312620 312620 312620
       669 312626 312626 312626 312626
       670 312627 312627 312627 312627
       671 312628 312628 312628 312628
       672 312634 312634 312634 312634
       673 312636 312636 312636 312636
       674 312642 312642 312642 312642
       675 312643 312643 312643 312643
       676 312651 312651 312651 312651
       677 312653 312653 312653 312653
       678 312657 312657 312657 312657
       679 312658 312658 312658 312658
       680 312664 312664 312664 312664
       681 312665 312665 312665 312665
       682 312666 312666 312666 312666
       683 312670 312670 312670 312670
       684 312673 312673 312673 312673
       685 312675 312675 312675 312675
       686 312681 312681 312681 312681
       687 312682 312682 312682 312682
       688 312691 312691 312691 312691
       689 312693 312693 312693 312693
       690 312697 312697 312697 312697
       691 312698 312698 312698 312698
       692 312704 312704 312704 312704
       693 312705 312705 312705 312705
       694 312706 312706 312706 312706
       695 312710 312710 312710 312710
       696 312713 312713 312713 312713
       697 312715 312715 312715 312715
       698 312721 312721 312721 312721
       699 312722 312722 312722 312722
       700 312728 312728 312728 312728
       701 312729 312729 312729 312729
       702 312733 312733 312733 312733
       703 312737 312737 312737 312737
       704 312740 312740 312740 312740
       705 312741 312741 312741 312741
       706 312742 312742 312742 312742
       707 312746 312746 312746 312746
       708 312749 312749 312749 312749
       709 312751 312751 312751 312751
       710 312757 312757 312757 312757
       711 312758 312758 312758 312758
       712 312764 312764 312764 312764
       713 312765 312765 312765 312765
       714 312769 312769 312769 312769
       715 312770 312770 312770 312770
       716 312776 312776 312776 312776
       717 312777 312777 312777 312777
       718 312778 312778 312778 312778
       719 312782 312782 312782 312782
       720 312785 312785 312785 312785
       721 312787 312787 312787 312787
       722 312793 312793 312793 312793
       723 312794 312794 312794 312794
       724 312800 312800 312800 312800
       725 312802 312802 312802 312802
       726 312806 312806 312806 312806
       727 312807 312807 312807 312807
       728 312813 312813 312813 312813
       729 312814 312814 312814 312814
       730 312815 312815 312815 312815
       731 312819 312819 312819 312819
       732 312822 312822 312822 312822
       733 312824 312824 312824 312824
       734 312830 312830 312830 312830
       735 312831 312831 312831 312831
       736 312838 312838 312838 312838
       737 312840 312840 312840 312840
       738 312843 312843 312843 312843
       739 312844 312844 312844 312844
       740 312849 312849 312849 312849
       741 312850 312850 312850 312850
       742 312851 312851 312851 312851
       743 312855 312855 312855 312855
       744 312858 312858 312858 312858
       745 312860 312860 312860 312860
       746 312866 312866 312866 312866
       747 312867 312867 312867 312867
       748 312875 312875 312875 312875
       749 312877 312877 312877 312877
       750 312878 312878 312878 312878
       751 312882 312882 312882 312882
       752 312888 312888 312888 312888
       753 312889 312889 312889 312889
       754 312890 312890 312890 312890
       755 312894 312894 312894 312894
       756 312897 312897 312897 312897
       757 312899 312899 312899 312899
       758 312905 312905 312905 312905
       759 312906 312906 312906 312906
       760 312913 312913 312913 312913
       761 312918 312918 312918 312918
       762 312924 312924 312924 312924
       763 312925 312925 312925 312925
       764 312929 312929 312929 312929
       765 312932 312932 312932 312932
       766 312934 312934 312934 312934
       767 312940 312940 312940 312940
       768 312941 312941 312941 312941
       769 312953 312953 312953 312953
       770 312958 312958 312958 312958
       771 312964 312964 312964 312964
       772 312965 312965 312965 312965
       773 312970 312970 312970 312970
       774 312973 312973 312973 312973
       775 312975 312975 312975 312975
       776 312981 312981 312981 312981
       777 312982 312982 312982 312982
       778 312989 312989 312989 312989
       779 312994 312994 312994 312994
       780 312997 312997 312997 312997
       781 313000 313000 313000 313000
       782 313001 313001 313001 313001
       783 313006 313006 313006 313006
       784 313009 313009 313009 313009
       785 313011 313011 313011 313011
       786 313016 313016 313016 313016
       787 313017 313017 313017 313017
       788 313023 313023 313023 313023
       789 313024 313024 313024 313024
       790 313027 313027 313027 313027
       791 313032 313032 313032 313032
       792 313035 313035 313035 313035
       793 313038 313038 313038 313038
       794 313040 313040 313040 313040
       795 313044 313044 313044 313044
       796 313047 313047 313047 313047
       797 313049 313049 313049 313049
       798 313055 313055 313055 313055
       799 313056 313056 313056 313056
       800 313065 313065 313065 313065
       801 313070 313070 313070 313070
       802 313073 313073 313073 313073
       803 313076 313076 313076 313076
       804 313081 313081 313081 313081
       805 313084 313084 313084 313084
       806 313086 313086 313086 313086
       807 313092 313092 313092 313092
       808 313093 313093 313093 313093
       809 313101 313101 313101 313101
       810 313106 313106 313106 313106
       811 313109 313109 313109 313109
       812 313113 313113 313113 313113
       813 313118 313118 313118 313118
       814 313121 313121 313121 313121
       815 313123 313123 313123 313123
       816 313129 313129 313129 313129
       817 313130 313130 313130 313130
       818 313140 313140 313140 313140
       819 313145 313145 313145 313145
       820 313148 313148 313148 313148
       821 313152 313152 313152 313152
       822 313157 313157 313157 313157
       823 313160 313160 313160 313160
       824 313162 313162 313162 313162
       825 313165 313165 313165 313165
       826 313168 313168 313168 313168
       827 313175 313175 313175 313175
       828 313178 313178 313178 313178
       829 313183 313183 313183 313183
       830 313186 313186 313186 313186
       831 313190 313190 313190 313190
       832 313195 313195 313195 313195
       833 313198 313198 313198 313198
       834 313203 313203 313203 313203
       835 313206 313206 313206 313206
       836 313207 313207 313207 313207
       837 313214 313214 313214 313214
       838 313219 313219 313219 313219
       839 313222 313222 313222 313222
       840 313225 313225 313225 313225
       841 313230 313230 313230 313230
       842 313233 313233 313233 313233
       843 313238 313238 313238 313238
       844 313241 313241 313241 313241
       845 313242 313242 313242 313242
       846 313249 313249 313249 313249
       847 313253 313253 313253 313253
       848 313256 313256 313256 313256
       849 313260 313260 313260 313260
       850 313265 313265 313265 313265
       851 313268 313268 313268 313268
       852 313273 313273 313273 313273
       853 313276 313276 313276 313276
       854 313277 313277 313277 313277
       855 313287 313287 313287 313287
       856 313288 313288 313288 313288
       857 313295 313295 313295 313295
       858 313299 313299 313299 313299
       859 313304 313304 313304 313304
       860 313307 313307 313307 313307
       861 313312 313312 313312 313312
       862 313315 313315 313315 313315
       863 313316 313316 313316 313316
       864 313324 313324 313324 313324
       865 313325 313325 313325 313325
       866 313332 313332 313332 313332
       867 313336 313336 313336 313336
       868 313341 313341 313341 313341
       869 313344 313344 313344 313344
       870 313349 313349 313349 313349
       871 313352 313352 313352 313352
       872 313353 313353 313353 313353
       873 313362 313362 313362 313362
       874 313363 313363 313363 313363
       875 313369 313369 313369 313369
       876 313373 313373 313373 313373
       877 313378 313378 313378 313378
       878 313381 313381 313381 313381
       879 313386 313386 313386 313386
       880 313389 313389 313389 313389
       881 313390 313390 313390 313390
       882 313396 313396 313396 313396
       883 313401 313401 313401 313401
       884 313403 313403 313403 313403
       885 313404 313404 313404 313404
       886 313410 313410 313410 313410
       887 313414 313414 313414 313414
       888 313419 313419 313419 313419
       889 313422 313422 313422 313422
       890 313427 313427 313427 313427
       891 313430 313430 313430 313430
       892 313431 313431 313431 313431
       893 313437 313437 313437 313437
       894 313439 313439 313439 313439
       895 313440 313440 313440 313440
       896 313447 313447 313447 313447
       897 313451 313451 313451 313451
       898 313456 313456 313456 313456
       899 313459 313459 313459 313459
       900 313464 313464 313464 313464
       901 313467 313467 313467 313467
       902 313468 313468 313468 313468
       903 313475 313475 313475 313475
       904 313476 313476 313476 313476
       905 313478 313478 313478 313478
       906 313479 313479 313479 313479
       907 313486 313486 313486 313486
       908 313490 313490 313490 313490
       909 313495 313495 313495 313495
       910 313498 313498 313498 313498
       911 313503 313503 313503 313503
       912 313506 313506 313506 313506
       913 313507 313507 313507 313507
       914 313513 313513 313513 313513
       915 313516 313516 313516 313516
       916 313518 313518 313518 313518
       917 313519 313519 313519 313519
       918 313526 313526 313526 313526
       919 313530 313530 313530 313530
       920 313535 313535 313535 313535
       921 313538 313538 313538 313538
       922 313543 313543 313543 313543
       923 313546 313546 313546 313546
       924 313547 313547 313547 313547
       925 313555 313555 313555 313555
       926 313557 313557 313557 313557
       927 313558 313558 313558 313558
       928 313565 313565 313565 313565
       929 313569 313569 313569 313569
       930 313574 313574 313574 313574
       931 313577 313577 313577 313577
       932 313582 313582 313582 313582
       933 313585 313585 313585 313585
       934 313586 313586 313586 313586
       935 313593 313593 313593 313593
       936 313594 313594 313594 313594
       937 313596 313596 313596 313596
       938 313603 313603 313603 313603
       939 313607 313607 313607 313607
       940 313612 313612 313612 313612
       941 313615 313615 313615 313615
       942 313620 313620 313620 313620
       943 313623 313623 313623 313623
       944 313624 313624 313624 313624
       945 313632 313632 313632 313632
       946 313634 313634 313634 313634
       947 313635 313635 313635 313635
       948 313642 313642 313642 313642
       949 313646 313646 313646 313646
       950 313651 313651 313651 313651
       951 313654 313654 313654 313654
       952 313659 313659 313659 313659
       953 313662 313662 313662 313662
       954 313663 313663 313663 313663
       955 313670 313670 313670 313670
       956 313672 313672 313672 313672
       957 313673 313673 313673 313673
       958 313680 313680 313680 313680
       959 313684 313684 313684 313684
       960 313689 313689 313689 313689
       961 313692 313692 313692 313692
       962 313696 313696 313696 313696
       963 313699 313699 313699 313699
       964 313700 313700 313700 313700
       965 313706 313706 313706 313706
       966 313707 313707 313707 313707
       967 313711 313711 313711 313711
       968 313713 313713 313713 313713
       969 313714 313714 313714 313714
       970 313721 313721 313721 313721
       971 313730 313730 313730 313730
       972 313733 313733 313733 313733
       973 313738 313738 313738 313738
       974 313741 313741 313741 313741
       975 313742 313742 313742 313742
       976 313751 313751 313751 313751
       977 313753 313753 313753 313753
       978 313754 313754 313754 313754
       979 313761 313761 313761 313761
       980 313770 313770 313770 313770
       981 313773 313773 313773 313773
       982 313778 313778 313778 313778
       983 313781 313781 313781 313781
       984 313789 313789 313789 313789
       985 313790 313790 313790 313790
       986 313792 313792 313792 313792
       987 313799 313799 313799 313799
       988 313808 313808 313808 313808
       989 313811 313811 313811 313811
       990 313815 313815 313815 313815
       991 313819 313819 313819 313819
       992 313826 313826 313826 313826
       993 313829 313829 313829 313829
       994 313830 313830 313830 313830
       995 313837 313837 313837 313837
       996 313849 313849 313849 313849
       997 313850 313850 313850 313850
       998 313854 313854 313854 313854
       999 313858 313858 313858 313858
       1000 313868 313868 313868 313868
       1001 313870 313870 313870 313870
       1002 313873 313873 313873 313873
       1003 313879 313879 313879 313879
       1004 313891 313891 313891 313891
       1005 313892 313892 313892 313892
       1006 313896 313896 313896 313896
       1007 313900 313900 313900 313900
       1008 313907 313907 313907 313907
       1009 313910 313910 313910 313910
       1010 313913 313913 313913 313913
       1011 313914 313914 313914 313914
       1012 313921 313921 313921 313921
       1013 313933 313933 313933 313933
       1014 313934 313934 313934 313934
       1015 313938 313938 313938 313938
       1016 313942 313942 313942 313942
       1017 313948 313948 313948 313948
       1018 313951 313951 313951 313951
       1019 313954 313954 313954 313954
       1020 313955 313955 313955 313955
       1021 313960 313960 313960 313960
       1022 313972 313972 313972 313972
       1023 313973 313973 313973 313973
       1024 313977 313977 313977 313977
       1025 313981 313981 313981 313981
       1026 313988 313988 313988 313988
       1027 313991 313991 313991 313991
       1028 313992 313992 313992 313992
       1029 313999 313999 313999 313999
       1030 314000 314000 314000 314000
       1031 314011 314011 314011 314011
       1032 314012 314012 314012 314012
       1033 314016 314016 314016 314016
       1034 314020 314020 314020 314020
       1035 314029 314029 314029 314029
       1036 314032 314032 314032 314032
       1037 314033 314033 314033 314033
       1038 314040 314040 314040 314040
       1039 314041 314041 314041 314041
       1040 314052 314052 314052 314052
       1041 314053 314053 314053 314053
       1042 314057 314057 314057 314057
       1043 314061 314061 314061 314061
       1044 314068 314068 314068 314068
       1045 314070 314070 314070 314070
       1046 314072 314072 314072 314072
       1047 314073 314073 314073 314073
       1048 314075 314075 314075 314075
       1049 314082 314082 314082 314082
       1050 314083 314083 314083 314083
       1051 314093 314093 314093 314093
       1052 314094 314094 314094 314094
       1053 314098 314098 314098 314098
       1054 314102 314102 314102 314102
       1055 314110 314110 314110 314110
       1056 314112 314112 314112 314112
       1057 314115 314115 314115 314115
       1058 314116 314116 314116 314116
       1059 314123 314123 314123 314123
       1060 314124 314124 314124 314124
       1061 314135 314135 314135 314135
       1062 314136 314136 314136 314136
       1063 314140 314140 314140 314140
       1064 314144 314144 314144 314144
       1065 314151 314151 314151 314151
       1066 314152 314152 314152 314152
       1067 314153 314153 314153 314153
       1068 314156 314156 314156 314156
       1069 314157 314157 314157 314157
       1070 314164 314164 314164 314164
       1071 314165 314165 314165 314165
       1072 314176 314176 314176 314176
       1073 314177 314177 314177 314177
       1074 314181 314181 314181 314181
       1075 314185 314185 314185 314185
       1076 314192 314192 314192 314192
       1077 314196 314196 314196 314196
       1078 314197 314197 314197 314197
       1079 314204 314204 314204 314204
       1080 314214 314214 314214 314214
       1081 314215 314215 314215 314215
       1082 314219 314219 314219 314219
       1083 314223 314223 314223 314223
       1084 314229 314229 314229 314229
       1085 314231 314231 314231 314231
       1086 314235 314235 314235 314235
       1087 314236 314236 314236 314236
       1088 314242 314242 314242 314242
       1089 314253 314253 314253 314253
       1090 314254 314254 314254 314254
       1091 314258 314258 314258 314258
       1092 314262 314262 314262 314262
       1093 314272 314272 314272 314272
       1094 314273 314273 314273 314273
       1095 314281 314281 314281 314281
       1096 314292 314292 314292 314292
       1097 314293 314293 314293 314293
       1098 314297 314297 314297 314297
       1099 314301 314301 314301 314301
       1100 314309 314309 314309 314309
       1101 314310 314310 314310 314310
       1102 314313 314313 314313 314313
       1103 314321 314321 314321 314321
       1104 314329 314329 314329 314329
       1105 314331 314331 314331 314331
       1106 314332 314332 314332 314332
       1107 314336 314336 314336 314336
       1108 314340 314340 314340 314340
       1109 314346 314346 314346 314346
       1110 314349 314349 314349 314349
       1111 314350 314350 314350 314350
       1112 314358 314358 314358 314358
       1113 314367 314367 314367 314367
       1114 314369 314369 314369 314369
       1115 314370 314370 314370 314370
       1116 314374 314374 314374 314374
       1117 314385 314385 314385 314385
       1118 314390 314390 314390 314390
       1119 314391 314391 314391 314391
       1120 314399 314399 314399 314399
       1121 314407 314407 314407 314407
       1122 314409 314409 314409 314409
       1123 314410 314410 314410 314410
       1124 314414 314414 314414 314414
       1125 314425 314425 314425 314425
       1126 314428 314428 314428 314428
       1127 314429 314429 314429 314429
       1128 314436 314436 314436 314436
       1129 314445 314445 314445 314445
       1130 314446 314446 314446 314446
       1131 314447 314447 314447 314447
       1132 314451 314451 314451 314451
       1133 314461 314461 314461 314461
       1134 314464 314464 314464 314464
       1135 314466 314466 314466 314466
       1136 314482 314482 314482 314482
       1137 314484 314484 314484 314484
       1138 314485 314485 314485 314485
       1139 314489 314489 314489 314489
       1140 314503 314503 314503 314503
       1141 314505 314505 314505 314505
       1142 314507 314507 314507 314507
       1143 314514 314514 314514 314514
       1144 314524 314524 314524 314524
       1145 314526 314526 314526 314526
       1146 314527 314527 314527 314527
       1147 314531 314531 314531 314531
       1148 314541 314541 314541 314541
       1149 314544 314544 314544 314544
       1150 314548 314548 314548 314548
       1151 314549 314549 314549 314549
       1152 314556 314556 314556 314556
       1153 314566 314566 314566 314566
       1154 314568 314568 314568 314568
       1155 314569 314569 314569 314569
       1156 314573 314573 314573 314573
       1157 314585 314585 314585 314585
       1158 314587 314587 314587 314587
       1159 314588 314588 314588 314588
       1160 314595 314595 314595 314595
       1161 314605 314605 314605 314605
       1162 314607 314607 314607 314607
       1163 314608 314608 314608 314608
       1164 314612 314612 314612 314612
       1165 314624 314624 314624 314624
       1166 314626 314626 314626 314626
       1167 314627 314627 314627 314627
       1168 314634 314634 314634 314634
       1169 314644 314644 314644 314644
       1170 314646 314646 314646 314646
       1171 314647 314647 314647 314647
       1172 314651 314651 314651 314651
       1173 314661 314661 314661 314661
       1174 314663 314663 314663 314663
       1175 314664 314664 314664 314664
       1176 314671 314671 314671 314671
       1177 314681 314681 314681 314681
       1178 314683 314683 314683 314683
       1179 314684 314684 314684 314684
       1180 314688 314688 314688 314688
       1181 314692 314692 314692 314692
       1182 314700 314700 314700 314700
       1183 314703 314703 314703 314703
       1184 314704 314704 314704 314704
       1185 314710 314710 314710 314710
       1186 314720 314720 314720 314720
       1187 314722 314722 314722 314722
       1188 314723 314723 314723 314723
       1189 314727 314727 314727 314727
       1190 314731 314731 314731 314731
       1191 314739 314739 314739 314739
       1192 314742 314742 314742 314742
       1193 314748 314748 314748 314748
       1194 314757 314757 314757 314757
       1195 314759 314759 314759 314759
       1196 314760 314760 314760 314760
       1197 314764 314764 314764 314764
       1198 314768 314768 314768 314768
       1199 314774 314774 314774 314774
       1200 314777 314777 314777 314777
       1201 314778 314778 314778 314778
       1202 314784 314784 314784 314784
       1203 314785 314785 314785 314785
       1204 314795 314795 314795 314795
       1205 314797 314797 314797 314797
       1206 314798 314798 314798 314798
       1207 314802 314802 314802 314802
       1208 314806 314806 314806 314806
       1209 314812 314812 314812 314812
       1210 314816 314816 314816 314816
       1211 314817 314817 314817 314817
       1212 314823 314823 314823 314823
       1213 314824 314824 314824 314824
       1214 314834 314834 314834 314834
       1215 314836 314836 314836 314836
       1216 314837 314837 314837 314837
       1217 314841 314841 314841 314841
       1218 314845 314845 314845 314845
       1219 314852 314852 314852 314852
       1220 314853 314853 314853 314853
       1221 314854 314854 314854 314854
       1222 314855 314855 314855 314855
       1223 314857 314857 314857 314857
       1224 314858 314858 314858 314858
       1225 314864 314864 314864 314864
       1226 314865 314865 314865 314865
       1227 314875 314875 314875 314875
       1228 314877 314877 314877 314877
       1229 314878 314878 314878 314878
       1230 314882 314882 314882 314882
       1231 314886 314886 314886 314886
       1232 314892 314892 314892 314892
       1233 314895 314895 314895 314895
       1234 314898 314898 314898 314898
       1235 314901 314901 314901 314901
       1236 314902 314902 314902 314902
       1237 314908 314908 314908 314908
       1238 314909 314909 314909 314909
       1239 314919 314919 314919 314919
       1240 314921 314921 314921 314921
       1241 314922 314922 314922 314922
       1242 314926 314926 314926 314926
       1243 314930 314930 314930 314930
       1244 314937 314937 314937 314937
       1245 314938 314938 314938 314938
       1246 314941 314941 314941 314941
       1247 314942 314942 314942 314942
       1248 314948 314948 314948 314948
       1249 314949 314949 314949 314949
       1250 314959 314959 314959 314959
       1251 314961 314961 314961 314961
       1252 314962 314962 314962 314962
       1253 314966 314966 314966 314966
       1254 314970 314970 314970 314970
       1255 314976 314976 314976 314976
       1256 314977 314977 314977 314977
       1257 314978 314978 314978 314978
       1258 314981 314981 314981 314981
       1259 314982 314982 314982 314982
       1260 314988 314988 314988 314988
       1261 314989 314989 314989 314989
       1262 314998 314998 314998 314998
       1263 315000 315000 315000 315000
       1264 315001 315001 315001 315001
       1265 315005 315005 315005 315005
       1266 315009 315009 315009 315009
       1267 315015 315015 315015 315015
       1268 315017 315017 315017 315017
       1269 315018 315018 315018 315018
       1270 315019 315019 315019 315019
       1271 315022 315022 315022 315022
       1272 315023 315023 315023 315023
       1273 315029 315029 315029 315029
       1274 315030 315030 315030 315030
       1275 315039 315039 315039 315039
       1276 315041 315041 315041 315041
       1277 315042 315042 315042 315042
       1278 315046 315046 315046 315046
       1279 315050 315050 315050 315050
       1280 315058 315058 315058 315058
       1281 315059 315059 315059 315059
       1282 315060 315060 315060 315060
       1283 315062 315062 315062 315062
       1284 315063 315063 315063 315063
       1285 315069 315069 315069 315069
       1286 315070 315070 315070 315070
       1287 315079 315079 315079 315079
       1288 315081 315081 315081 315081
       1289 315082 315082 315082 315082
       1290 315086 315086 315086 315086
       1291 315090 315090 315090 315090
       1292 315098 315098 315098 315098
       1293 315099 315099 315099 315099
       1294 315100 315100 315100 315100
       1295 315101 315101 315101 315101
       1296 315102 315102 315102 315102
       1297 315103 315103 315103 315103
       1298 315105 315105 315105 315105
       1299 315111 315111 315111 315111
       1300 315112 315112 315112 315112
       1301 315121 315121 315121 315121
       1302 315123 315123 315123 315123
       1303 315124 315124 315124 315124
       1304 315128 315128 315128 315128
       1305 315132 315132 315132 315132
       1306 315138 315138 315138 315138
       1307 315139 315139 315139 315139
       1308 315140 315140 315140 315140
       1309 315142 315142 315142 315142
       1310 315143 315143 315143 315143
       1311 315149 315149 315149 315149
       1312 315150 315150 315150 315150
       1313 315160 315160 315160 315160
       1314 315162 315162 315162 315162
       1315 315163 315163 315163 315163
       1316 315167 315167 315167 315167
       1317 315171 315171 315171 315171
       1318 315177 315177 315177 315177
       1319 315178 315178 315178 315178
       1320 315181 315181 315181 315181
       1321 315182 315182 315182 315182
       1322 315185 315185 315185 315185
       1323 315186 315186 315186 315186
       1324 315192 315192 315192 315192
       1325 315193 315193 315193 315193
       1326 315201 315201 315201 315201
       1327 315203 315203 315203 315203
       1328 315204 315204 315204 315204
       1329 315208 315208 315208 315208
       1330 315212 315212 315212 315212
       1331 315218 315218 315218 315218
       1332 315220 315220 315220 315220
       1333 315223 315223 315223 315223
       1334 315224 315224 315224 315224
       1335 315230 315230 315230 315230
       1336 315231 315231 315231 315231
       1337 315235 315235 315235 315235
       1338 315241 315241 315241 315241
       1339 315243 315243 315243 315243
       1340 315244 315244 315244 315244
       1341 315248 315248 315248 315248
       1342 315252 315252 315252 315252
       1343 315257 315257 315257 315257
       1344 315260 315260 315260 315260
       1345 315261 315261 315261 315261
       1346 315267 315267 315267 315267
       1347 315268 315268 315268 315268
       1348 315271 315271 315271 315271
       1349 315276 315276 315276 315276
       1350 315278 315278 315278 315278
       1351 315279 315279 315279 315279
       1352 315283 315283 315283 315283
       1353 315287 315287 315287 315287
       1354 315293 315293 315293 315293
       1355 315297 315297 315297 315297
       1356 315298 315298 315298 315298
       1357 315300 315300 315300 315300
       1358 315306 315306 315306 315306
       1359 315307 315307 315307 315307
       1360 315311 315311 315311 315311
       1361 315316 315316 315316 315316
       1362 315318 315318 315318 315318
       1363 315319 315319 315319 315319
       1364 315323 315323 315323 315323
       1365 315327 315327 315327 315327
       1366 315335 315335 315335 315335
       1367 315338 315338 315338 315338
       1368 315339 315339 315339 315339
       1369 315345 315345 315345 315345
       1370 315346 315346 315346 315346
       1371 315350 315350 315350 315350
       1372 315355 315355 315355 315355
       1373 315357 315357 315357 315357
       1374 315362 315362 315362 315362
       1375 315366 315366 315366 315366
       1376 315372 315372 315372 315372
       1377 315373 315373 315373 315373
       1378 315375 315375 315375 315375
       1379 315376 315376 315376 315376
       1380 315381 315381 315381 315381
       1381 315382 315382 315382 315382
       1382 315386 315386 315386 315386
       1383 315391 315391 315391 315391
       1384 315393 315393 315393 315393
       1385 315398 315398 315398 315398
       1386 315402 315402 315402 315402
       1387 315411 315411 315411 315411
       1388 315412 315412 315412 315412
       1389 315413 315413 315413 315413
       1390 315419 315419 315419 315419
       1391 315420 315420 315420 315420
       1392 315424 315424 315424 315424
       1393 315429 315429 315429 315429
       1394 315431 315431 315431 315431
       1395 315436 315436 315436 315436
       1396 315440 315440 315440 315440
       1397 315449 315449 315449 315449
       1398 315450 315450 315450 315450
       1399 315456 315456 315456 315456
       1400 315457 315457 315457 315457
       1401 315461 315461 315461 315461
       1402 315467 315467 315467 315467
       1403 315469 315469 315469 315469
       1404 315474 315474 315474 315474
       1405 315478 315478 315478 315478
       1406 315485 315485 315485 315485
       1407 315487 315487 315487 315487
       1408 315488 315488 315488 315488
       1409 315494 315494 315494 315494
       1410 315495 315495 315495 315495
       1411 315500 315500 315500 315500
       1412 315505 315505 315505 315505
       1413 315507 315507 315507 315507
       1414 315512 315512 315512 315512
       1415 315516 315516 315516 315516
       1416 315521 315521 315521 315521
       1417 315524 315524 315524 315524
       1418 315525 315525 315525 315525
       1419 315531 315531 315531 315531
       1420 315532 315532 315532 315532
       1421 315537 315537 315537 315537
       1422 315542 315542 315542 315542
       1423 315544 315544 315544 315544
       1424 315549 315549 315549 315549
       1425 315553 315553 315553 315553
       1426 315559 315559 315559 315559
       1427 315561 315561 315561 315561
       1428 315563 315563 315563 315563
       1429 315569 315569 315569 315569
       1430 315570 315570 315570 315570
       1431 315573 315573 315573 315573
       1432 315579 315579 315579 315579
       1433 315586 315586 315586 315586
       1434 315590 315590 315590 315590
       1435 315600 315600 315600 315600
       1436 315601 315601 315601 315601
       1437 315607 315607 315607 315607
       1438 315608 315608 315608 315608
       1439 315613 315613 315613 315613
       1440 315618 315618 315618 315618
       1441 315625 315625 315625 315625
       1442 315629 315629 315629 315629
       1443 315637 315637 315637 315637
       1444 315638 315638 315638 315638
       1445 315643 315643 315643 315643
       1446 315644 315644 315644 315644
       1447 315648 315648 315648 315648
       1448 315654 315654 315654 315654
       1449 315661 315661 315661 315661
       1450 315665 315665 315665 315665
       1451 315673 315673 315673 315673
       1452 315674 315674 315674 315674
       1453 315680 315680 315680 315680
       1454 315681 315681 315681 315681
       1455 315686 315686 315686 315686
       1456 315691 315691 315691 315691
       1457 315698 315698 315698 315698
       1458 315702 315702 315702 315702
       1459 315714 315714 315714 315714
       1460 315715 315715 315715 315715
       1461 315720 315720 315720 315720
       1462 315722 315722 315722 315722
       1463 315725 315725 315725 315725
       1464 315731 315731 315731 315731
       1465 315738 315738 315738 315738
       1466 315742 315742 315742 315742
       1467 315750 315750 315750 315750
       1468 315751 315751 315751 315751
       1469 315752 315752 315752 315752
       1470 315757 315757 315757 315757
       1471 315758 315758 315758 315758
       1472 315762 315762 315762 315762
       1473 315767 315767 315767 315767
       1474 315774 315774 315774 315774
       1475 315778 315778 315778 315778
       1476 315784 315784 315784 315784
       1477 315785 315785 315785 315785
       1478 315787 315787 315787 315787
       1479 315789 315789 315789 315789
       1480 315790 315790 315790 315790
       1481 315791 315791 315791 315791
       1482 315796 315796 315796 315796
       1483 315798 315798 315798 315798
       1484 315800 315800 315800 315800
       1485 315801 315801 315801 315801
       1486 315807 315807 315807 315807
       1487 315814 315814 315814 315814
       1488 315818 315818 315818 315818
       1489 315824 315824 315824 315824
       1490 315829 315829 315829 315829
       1491 315830 315830 315830 315830
       1492 315831 315831 315831 315831
       1493 315837 315837 315837 315837
       1494 315840 315840 315840 315840
       1495 315841 315841 315841 315841
       1496 315847 315847 315847 315847
       1497 315854 315854 315854 315854
       1498 315858 315858 315858 315858
       1499 315866 315866 315866 315866
       1500 315867 315867 315867 315867
       1501 315872 315872 315872 315872
       1502 315873 315873 315873 315873
       1503 315874 315874 315874 315874
       1504 315880 315880 315880 315880
       1505 315882 315882 315882 315882
       1506 315884 315884 315884 315884
       1507 315889 315889 315889 315889
       1508 315890 315890 315890 315890
       1509 315895 315895 315895 315895
       1510 315899 315899 315899 315899
       1511 315903 315903 315903 315903
       1512 315906 315906 315906 315906
       1513 315907 315907 315907 315907
       1514 315910 315910 315910 315910
       1515 315911 315911 315911 315911
       1516 315912 315912 315912 315912
       1517 315919 315919 315919 315919
       1518 315920 315920 315920 315920
       1519 315922 315922 315922 315922
       1520 315928 315928 315928 315928
       1521 315935 315935 315935 315935
       1522 315939 315939 315939 315939
       1523 315943 315943 315943 315943
       1524 315945 315945 315945 315945
       1525 315947 315947 315947 315947
       1526 315952 315952 315952 315952
       1527 315953 315953 315953 315953
       1528 315954 315954 315954 315954
       1529 315960 315960 315960 315960
       1530 315964 315964 315964 315964
       1531 315965 315965 315965 315965
       1532 315970 315970 315970 315970
       1533 315976 315976 315976 315976
       1534 315980 315980 315980 315980
       1535 315984 315984 315984 315984
       1536 315986 315986 315986 315986
       1537 315990 315990 315990 315990
       1538 315992 315992 315992 315992
       1539 315993 315993 315993 315993
       1540 315995 315995 315995 315995
       1541 316000 316000 316000 316000
       1542 316003 316003 316003 316003
       1543 316004 316004 316004 316004
       1544 316010 316010 316010 316010
       1545 316012 316012 316012 316012
       1546 316017 316017 316017 316017
       1547 316021 316021 316021 316021
       1548 316025 316025 316025 316025
       1549 316027 316027 316027 316027
       1550 316029 316029 316029 316029
       1551 316031 316031 316031 316031
       1552 316032 316032 316032 316032
       1553 316033 316033 316033 316033
       1554 316039 316039 316039 316039
       1555 316043 316043 316043 316043
       1556 316044 316044 316044 316044
       1557 316049 316049 316049 316049
       1558 316051 316051 316051 316051
       1559 316056 316056 316056 316056
       1560 316060 316060 316060 316060
       1561 316064 316064 316064 316064
       1562 316066 316066 316066 316066
       1563 316069 316069 316069 316069
       1564 316070 316070 316070 316070
       1565 316071 316071 316071 316071
       1566 316077 316077 316077 316077
       1567 316080 316080 316080 316080
       1568 316081 316081 316081 316081
       1569 316087 316087 316087 316087
       1570 316089 316089 316089 316089
       1571 316094 316094 316094 316094
       1572 316098 316098 316098 316098
       1573 316102 316102 316102 316102
       1574 316106 316106 316106 316106
       1575 316108 316108 316108 316108
       1576 316109 316109 316109 316109
       1577 316110 316110 316110 316110
       1578 316116 316116 316116 316116
       1579 316119 316119 316119 316119
       1580 316120 316120 316120 316120
       1581 316126 316126 316126 316126
       1582 316128 316128 316128 316128
       1583 316133 316133 316133 316133
       1584 316137 316137 316137 316137
       1585 316141 316141 316141 316141
       1586 316143 316143 316143 316143
       1587 316149 316149 316149 316149
       1588 316150 316150 316150 316150
       1589 316151 316151 316151 316151
       1590 316152 316152 316152 316152
       1591 316156 316156 316156 316156
       1592 316159 316159 316159 316159
       1593 316165 316165 316165 316165
       1594 316167 316167 316167 316167
       1595 316172 316172 316172 316172
       1596 316176 316176 316176 316176
       1597 316180 316180 316180 316180
       1598 316183 316183 316183 316183
       1599 316186 316186 316186 316186
       1600 316187 316187 316187 316187
       1601 316188 316188 316188 316188
       1602 316190 316190 316190 316190
       1603 316195 316195 316195 316195
       1604 316198 316198 316198 316198
       1605 316204 316204 316204 316204
       1606 316206 316206 316206 316206
       1607 316215 316215 316215 316215
       1608 316219 316219 316219 316219
       1609 316221 316221 316221 316221
       1610 316222 316222 316222 316222
       1611 316223 316223 316223 316223
       1612 316225 316225 316225 316225
       1613 316228 316228 316228 316228
       1614 316230 316230 316230 316230
       1615 316231 316231 316231 316231
       1616 316235 316235 316235 316235
       1617 316238 316238 316238 316238
       1618 316239 316239 316239 316239
       1619 316245 316245 316245 316245
       1620 316247 316247 316247 316247
       1621 316251 316251 316251 316251
       1622 316256 316256 316256 316256
       1623 316260 316260 316260 316260
       1624 316263 316263 316263 316263
       1625 316268 316268 316268 316268
       1626 316269 316269 316269 316269
       1627 316270 316270 316270 316270
       1628 316272 316272 316272 316272
       1629 316277 316277 316277 316277
       1630 316279 316279 316279 316279
       1631 316280 316280 316280 316280
       1632 316286 316286 316286 316286
       1633 316288 316288 316288 316288
       1634 316289 316289 316289 316289
       1635 316292 316292 316292 316292
       1636 316297 316297 316297 316297
       1637 316301 316301 316301 316301
       1638 316305 316305 316305 316305
       1639 316306 316306 316306 316306
       1640 316309 316309 316309 316309
       1641 316310 316310 316310 316310
       1642 316311 316311 316311 316311
       1643 316313 316313 316313 316313
       1644 316317 316317 316317 316317
       1645 316320 316320 316320 316320
       1646 316327 316327 316327 316327
       1647 316329 316329 316329 316329
       1648 316330 316330 316330 316330
       1649 316333 316333 316333 316333
       1650 316338 316338 316338 316338
       1651 316342 316342 316342 316342
       1652 316344 316344 316344 316344
       1653 316345 316345 316345 316345
       1654 316348 316348 316348 316348
       1655 316351 316351 316351 316351
       1656 316352 316352 316352 316352
       1657 316353 316353 316353 316353
       1658 316355 316355 316355 316355
       1659 316360 316360 316360 316360
       1660 316362 316362 316362 316362
       1661 316363 316363 316363 316363
       1662 316369 316369 316369 316369
       1663 316371 316371 316371 316371
       1664 316372 316372 316372 316372
       1665 316375 316375 316375 316375
       1666 316380 316380 316380 316380
       1667 316384 316384 316384 316384
       1668 316391 316391 316391 316391
       1669 316392 316392 316392 316392
       1670 316393 316393 316393 316393
       1671 316399 316399 316399 316399
       1672 316402 316402 316402 316402
       1673 316403 316403 316403 316403
       1674 316404 316404 316404 316404
       1675 316409 316409 316409 316409
       1676 316411 316411 316411 316411
       1677 316412 316412 316412 316412
       1678 316415 316415 316415 316415
       1679 316420 316420 316420 316420
       1680 316424 316424 316424 316424
       1681 316426 316426 316426 316426
       1682 316430 316430 316430 316430
       1683 316433 316433 316433 316433
       1684 316434 316434 316434 316434
       1685 316435 316435 316435 316435
       1686 316441 316441 316441 316441
       1687 316443 316443 316443 316443
       1688 316444 316444 316444 316444
       1689 316450 316450 316450 316450
       1690 316452 316452 316452 316452
       1691 316453 316453 316453 316453
       1692 316456 316456 316456 316456
       1693 316461 316461 316461 316461
       1694 316465 316465 316465 316465
       1695 316467 316467 316467 316467
       1696 316475 316475 316475 316475
       1697 316476 316476 316476 316476
       1698 316477 316477 316477 316477
       1699 316483 316483 316483 316483
       1700 316486 316486 316486 316486
       1701 316487 316487 316487 316487
       1702 316493 316493 316493 316493
       1703 316495 316495 316495 316495
       1704 316496 316496 316496 316496
       1705 316499 316499 316499 316499
       1706 316504 316504 316504 316504
       1707 316508 316508 316508 316508
       1708 316514 316514 316514 316514
       1709 316515 316515 316515 316515
       1710 316516 316516 316516 316516
       1711 316522 316522 316522 316522
       1712 316525 316525 316525 316525
       1713 316526 316526 316526 316526
       1714 316532 316532 316532 316532
       1715 316534 316534 316534 316534
       1716 316535 316535 316535 316535
       1717 316542 316542 316542 316542
       1718 316546 316546 316546 316546
       1719 316550 316550 316550 316550
       1720 316552 316552 316552 316552
       1721 316553 316553 316553 316553
       1722 316554 316554 316554 316554
       1723 316559 316559 316559 316559
       1724 316562 316562 316562 316562
       1725 316568 316568 316568 316568
       1726 316570 316570 316570 316570
       1727 316571 316571 316571 316571
       1728 316579 316579 316579 316579
       1729 316583 316583 316583 316583
       1730 316588 316588 316588 316588
       1731 316589 316589 316589 316589
       1732 316590 316590 316590 316590
       1733 316596 316596 316596 316596
       1734 316599 316599 316599 316599
       1735 316606 316606 316606 316606
       1736 316608 316608 316608 316608
       1737 316609 316609 316609 316609
       1738 316617 316617 316617 316617
       1739 316621 316621 316621 316621
       1740 316623 316623 316623 316623
       1741 316629 316629 316629 316629
       1742 316630 316630 316630 316630
       1743 316631 316631 316631 316631
       1744 316636 316636 316636 316636
       1745 316640 316640 316640 316640
       1746 316646 316646 316646 316646
       1747 316648 316648 316648 316648
       1748 316649 316649 316649 316649
       1749 316657 316657 316657 316657
       1750 316661 316661 316661 316661
       1751 316664 316664 316664 316664
       1752 316667 316667 316667 316667
       1753 316668 316668 316668 316668
       1754 316669 316669 316669 316669
       1755 316675 316675 316675 316675
       1756 316679 316679 316679 316679
       1757 316685 316685 316685 316685
       1758 316687 316687 316687 316687
       1759 316688 316688 316688 316688
       1760 316696 316696 316696 316696
       1761 316700 316700 316700 316700
       1762 316705 316705 316705 316705
       1763 316706 316706 316706 316706
       1764 316707 316707 316707 316707
       1765 316713 316713 316713 316713
       1766 316717 316717 316717 316717
       1767 316723 316723 316723 316723
       1768 316725 316725 316725 316725
       1769 316726 316726 316726 316726
       1770 316734 316734 316734 316734
       1771 316738 316738 316738 316738
       1772 316745 316745 316745 316745
       1773 316746 316746 316746 316746
       1774 316747 316747 316747 316747
       1775 316752 316752 316752 316752
       1776 316761 316761 316761 316761
       1777 316762 316762 316762 316762
       1778 316764 316764 316764 316764
       1779 316765 316765 316765 316765
       1780 316773 316773 316773 316773
       1781 316774 316774 316774 316774
       1782 316777 316777 316777 316777
       1783 316779 316779 316779 316779
       1784 316780 316780 316780 316780
       1785 316784 316784 316784 316784
       1786 316785 316785 316785 316785
       1787 316786 316786 316786 316786
       1788 316795 316795 316795 316795
       1789 316802 316802 316802 316802
       1790 316804 316804 316804 316804
       1791 316805 316805 316805 316805
       1792 316813 316813 316813 316813
       1793 316814 316814 316814 316814
       1794 316817 316817 316817 316817
       1795 316824 316824 316824 316824
       1796 316825 316825 316825 316825
       1797 316826 316826 316826 316826
       1798 316835 316835 316835 316835
       1799 316842 316842 316842 316842
       1800 316844 316844 316844 316844
       1801 316845 316845 316845 316845
       1802 316853 316853 316853 316853
       1803 316854 316854 316854 316854
       1804 316857 316857 316857 316857
       1805 316861 316861 316861 316861
       1806 316866 316866 316866 316866
       1807 316867 316867 316867 316867
       1808 316868 316868 316868 316868
       1809 316883 316883 316883 316883
       1810 316885 316885 316885 316885
       1811 316886 316886 316886 316886
       1812 316894 316894 316894 316894
       1813 316895 316895 316895 316895
       1814 316898 316898 316898 316898
       1815 316904 316904 316904 316904
       1816 316905 316905 316905 316905
       1817 316906 316906 316906 316906
       1818 316915 316915 316915 316915
       1819 316921 316921 316921 316921
       1820 316923 316923 316923 316923
       1821 316924 316924 316924 316924
       1822 316932 316932 316932 316932
       1823 316933 316933 316933 316933
       1824 316936 316936 316936 316936
       1825 316940 316940 316940 316940
       1826 316941 316941 316941 316941
       1827 316942 316942 316942 316942
       1828 316951 316951 316951 316951
       1829 316958 316958 316958 316958
       1830 316960 316960 316960 316960
       1831 316961 316961 316961 316961
       1832 316969 316969 316969 316969
       1833 316970 316970 316970 316970
       1834 316973 316973 316973 316973
       1835 316975 316975 316975 316975
       1836 316976 316976 316976 316976
       1837 316980 316980 316980 316980
       1838 316981 316981 316981 316981
       1839 316982 316982 316982 316982
       1840 316988 316988 316988 316988
       1841 316990 316990 316990 316990
       1842 316997 316997 316997 316997
       1843 316999 316999 316999 316999
       1844 317000 317000 317000 317000
       1845 317008 317008 317008 317008
       1846 317009 317009 317009 317009
       1847 317012 317012 317012 317012
       1848 317017 317017 317017 317017
       1849 317020 317020 317020 317020
       1850 317021 317021 317021 317021
       1851 317028 317028 317028 317028
       1852 317035 317035 317035 317035
       1853 317036 317036 317036 317036
       1854 317038 317038 317038 317038
       1855 317039 317039 317039 317039
       1856 317047 317047 317047 317047
       1857 317048 317048 317048 317048
       1858 317051 317051 317051 317051
       1859 317053 317053 317053 317053
       1860 317058 317058 317058 317058
       1861 317059 317059 317059 317059
       1862 317065 317065 317065 317065
       1863 317067 317067 317067 317067
       1864 317073 317073 317073 317073
       1865 317075 317075 317075 317075
       1866 317076 317076 317076 317076
       1867 317084 317084 317084 317084
       1868 317085 317085 317085 317085
       1869 317088 317088 317088 317088
       1870 317091 317091 317091 317091
       1871 317092 317092 317092 317092
       1872 317096 317096 317096 317096
       1873 317097 317097 317097 317097
       1874 317104 317104 317104 317104
       1875 317106 317106 317106 317106
       1876 317112 317112 317112 317112
       1877 317114 317114 317114 317114
[...]
     number of failed shell  elements = 0
     number of failed tshell elements = 0
 f a i l e d   e l e m e n t   r e p o r t  time=  3.5946E-05
     number of failed solid  elements = 53
     number of failed beam   elements = 0
     number of failed shell  elements = 0
     number of failed tshell elements = 0
 f a i l e d   e l e m e n t   r e p o r t  time=  3.6053E-05
     number of failed solid  elements = 53
     number of failed beam   elements = 0
     number of failed shell  elements = 0
     number of failed tshell elements = 0
 f a i l e d   e l e m e n t   r e p o r t  time=  3.6097E-05
     number of failed solid  elements = 53
     number of failed beam   elements = 0
     number of failed shell  elements = 0
     number of failed tshell elements = 0
 f a i l e d   e l e m e n t   r e p o r t  time=  3.6324E-05
     number of failed solid  elements = 53
     number of failed beam   elements = 0
     number of failed shell  elements = 0
     number of failed tshell elements = 0
 f a i l e d   e l e m e n t   r e p o r t  time=  3.6849E-05
     number of failed solid  elements = 53
     number of failed beam   elements = 0
     number of failed shell  elements = 0
     number of failed tshell elements = 0
 f a i l e d   e l e m e n t   r e p o r t  time=  3.6934E-05
     number of failed solid  elements = 53
     number of failed beam   elements = 0
     number of failed shell  elements = 0
     number of failed tshell elements = 0
 f a i l e d   e l e m e n t   r e p o r t  time=  3.7004E-05
     number of failed solid  elements = 53
     number of failed beam   elements = 0
     number of failed shell  elements = 0
     number of failed tshell elements = 0
 f a i l e d   e l e m e n t   r e p o r t  time=  3.7129E-05
     number of failed solid  elements = 53
     number of failed beam   elements = 0
     number of failed shell  elements = 0
     number of failed tshell elements = 0
 f a i l e d   e l e m e n t   r e p o r t  time=  3.7382E-05
     number of failed solid  elements = 53
     number of failed beam   elements = 0
     number of failed shell  elements = 0
     number of failed tshell elements = 0
 f a i l e d   e l e m e n t   r e p o r t  time=  3.7475E-05
     number of failed solid  elements = 53
     number of failed beam   elements = 0
     number of failed shell  elements = 0
     number of failed tshell elements = 0
 f a i l e d   e l e m e n t   r e p o r t  time=  3.7523E-05
     number of failed solid  elements = 53
     number of failed beam   elements = 0
     number of failed shell  elements = 0
     number of failed tshell elements = 0
 f a i l e d   e l e m e n t   r e p o r t  time=  3.7636E-05
     number of failed solid  elements = 53
     number of failed beam   elements = 0
     number of failed shell  elements = 0
     number of failed tshell elements = 0
 f a i l e d   e l e m e n t   r e p o r t  time=  3.7727E-05
     number of failed solid  elements = 53
     number of failed beam   elements = 0
     number of failed shell  elements = 0
     number of failed tshell elements = 0
 f a i l e d   e l e m e n t   r e p o r t  time=  3.7744E-05
     number of failed solid  elements = 53
     number of failed beam   elements = 0
     number of failed shell  elements = 0
     number of failed tshell elements = 0
 f a i l e d   e l e m e n t   r e p o r t  time=  3.7800E-05
     number of failed solid  elements = 53
     number of failed beam   elements = 0
     number of failed shell  elements = 0
     number of failed tshell elements = 0
 f a i l e d   e l e m e n t   r e p o r t  time=  3.8123E-05
     number of failed solid  elements = 53
     number of failed beam   elements = 0
     number of failed shell  elements = 0
     number of failed tshell elements = 0
 Element deleted due to damage
     solid element 30308  failed at time  3.8186E-05
 f a i l e d   e l e m e n t   r e p o r t  time=  3.8186E-05
     number of failed solid  elements = 54
     number of failed beam   elements = 0
     number of failed shell  elements = 0
     number of failed tshell elements = 0
 f a i l e d   e l e m e n t   r e p o r t  time=  3.8309E-05
     number of failed solid  elements = 54
     number of failed beam   elements = 0
     number of failed shell  elements = 0
     number of failed tshell elements = 0
 f a i l e d   e l e m e n t   r e p o r t  time=  3.8402E-05
     number of failed solid  elements = 54
     number of failed beam   elements = 0
     number of failed shell  elements = 0
     number of failed tshell elements = 0
 f a i l e d   e l e m e n t   r e p o r t  time=  3.8478E-05
     number of failed solid  elements = 54
     number of failed beam   elements = 0
     number of failed shell  elements = 0
     number of failed tshell elements = 0
 f a i l e d   e l e m e n t   r e p o r t  time=  3.8513E-05
     number of failed solid  elements = 54
     number of failed beam   elements = 0
     number of failed shell  elements = 0
     number of failed tshell elements = 0
 f a i l e d   e l e m e n t   r e p o r t  time=  3.8542E-05
     number of failed solid  elements = 54
     number of failed beam   elements = 0
     number of failed shell  elements = 0
     number of failed tshell elements = 0
 f a i l e d   e l e m e n t   r e p o r t  time=  3.8564E-05
     number of failed solid  elements = 54
     number of failed beam   elements = 0
     number of failed shell  elements = 0
     number of failed tshell elements = 0
 f a i l e d   e l e m e n t   r e p o r t  time=  3.8623E-05
     number of failed solid  elements = 54
     number of failed beam   elements = 0
     number of failed shell  elements = 0
     number of failed tshell elements = 0
 f a i l e d   e l e m e n t   r e p o r t  time=  3.8631E-05
     number of failed solid  elements = 54
     number of failed beam   elements = 0
     number of failed shell  elements = 0
     number of failed tshell elements = 0
 f a i l e d   e l e m e n t   r e p o r t  time=  3.8671E-05
     number of failed solid  elements = 54
     number of failed beam   elements = 0
     number of failed shell  elements = 0
     number of failed tshell elements = 0
 f a i l e d   e l e m e n t   r e p o r t  time=  3.8704E-05
     number of failed solid  elements = 54
     number of failed beam   elements = 0
     number of failed shell  elements = 0
     number of failed tshell elements = 0
 f a i l e d   e l e m e n t   r e p o r t  time=  3.8743E-05
     number of failed solid  elements = 54
     number of failed beam   elements = 0
     number of failed shell  elements = 0
     number of failed tshell elements = 0
 f a i l e d   e l e m e n t   r e p o r t  time=  3.9755E-05
     number of failed solid  elements = 54
     number of failed beam   elements = 0
     number of failed shell  elements = 0
     number of failed tshell elements = 0
 f a i l e d   e l e m e n t   r e p o r t  time=  3.9760E-05
     number of failed solid  elements = 54
     number of failed beam   elements = 0
     number of failed shell  elements = 0
     number of failed tshell elements = 0
 f a i l e d   e l e m e n t   r e p o r t  time=  3.9850E-05
     number of failed solid  elements = 54
     number of failed beam   elements = 0
     number of failed shell  elements = 0
     number of failed tshell elements = 0
 f a i l e d   e l e m e n t   r e p o r t  time=  3.9892E-05
     number of failed solid  elements = 54
     number of failed beam   elements = 0
     number of failed shell  elements = 0
     number of failed tshell elements = 0
 f a i l e d   e l e m e n t   r e p o r t  time=  4.0048E-05
     number of failed solid  elements = 54
     number of failed beam   elements = 0
     number of failed shell  elements = 0
     number of failed tshell elements = 0
 f a i l e d   e l e m e n t   r e p o r t  time=  4.0127E-05
     number of failed solid  elements = 54
     number of failed beam   elements = 0
     number of failed shell  elements = 0
     number of failed tshell elements = 0
 f a i l e d   e l e m e n t   r e p o r t  time=  4.0463E-05
     number of failed solid  elements = 54
     number of failed beam   elements = 0
     number of failed shell  elements = 0
     number of failed tshell elements = 0
 f a i l e d   e l e m e n t   r e p o r t  time=  4.1174E-05
     number of failed solid  elements = 54
     number of failed beam   elements = 0
     number of failed shell  elements = 0
     number of failed tshell elements = 0
 f a i l e d   e l e m e n t   r e p o r t  time=  4.1199E-05
     number of failed solid  elements = 54
     number of failed beam   elements = 0
     number of failed shell  elements = 0
     number of failed tshell elements = 0
 f a i l e d   e l e m e n t   r e p o r t  time=  4.2027E-05
     number of failed solid  elements = 54
     number of failed beam   elements = 0
     number of failed shell  elements = 0
     number of failed tshell elements = 0
 f a i l e d   e l e m e n t   r e p o r t  time=  4.2049E-05
     number of failed solid  elements = 54
     number of failed beam   elements = 0
     number of failed shell  elements = 0
     number of failed tshell elements = 0
 Element deleted due to damage
     solid element 39161  failed at time  4.2130E-05
 f a i l e d   e l e m e n t   r e p o r t  time=  4.2130E-05
     number of failed solid  elements = 55
     number of failed beam   elements = 0
     number of failed shell  elements = 0
     number of failed tshell elements = 0
 f a i l e d   e l e m e n t   r e p o r t  time=  4.3620E-05
     number of failed solid  elements = 55
     number of failed beam   elements = 0
     number of failed shell  elements = 0
     number of failed tshell elements = 0
 f a i l e d   e l e m e n t   r e p o r t  time=  4.3674E-05
     number of failed solid  elements = 55
     number of failed beam   elements = 0
     number of failed shell  elements = 0
     number of failed tshell elements = 0
 f a i l e d   e l e m e n t   r e p o r t  time=  4.3720E-05
     number of failed solid  elements = 55
     number of failed beam   elements = 0
     number of failed shell  elements = 0
     number of failed tshell elements = 0
 f a i l e d   e l e m e n t   r e p o r t  time=  4.3763E-05
     number of failed solid  elements = 55
     number of failed beam   elements = 0
     number of failed shell  elements = 0
     number of failed tshell elements = 0
 f a i l e d   e l e m e n t   r e p o r t  time=  4.3810E-05
     number of failed solid  elements = 55
     number of failed beam   elements = 0
     number of failed shell  elements = 0
     number of failed tshell elements = 0
 Element deleted due to damage
     solid element 30285  failed at time  4.8840E-05
 f a i l e d   e l e m e n t   r e p o r t  time=  4.8840E-05
     number of failed solid  elements = 56
     number of failed beam   elements = 0
     number of failed shell  elements = 0
     number of failed tshell elements = 0
 Element deleted due to damage
     solid element 31335  failed at time  4.9582E-05
 f a i l e d   e l e m e n t   r e p o r t  time=  4.9582E-05
     number of failed solid  elements = 57
     number of failed beam   elements = 0
     number of failed shell  elements = 0
     number of failed tshell elements = 0
 f a i l e d   e l e m e n t   r e p o r t  time=  5.2612E-05
     number of failed solid  elements = 57
     number of failed beam   elements = 0
     number of failed shell  elements = 0
     number of failed tshell elements = 0
 Element deleted due to damage
     solid element 33797  failed at time  5.5406E-05
 f a i l e d   e l e m e n t   r e p o r t  time=  5.5406E-05
     number of failed solid  elements = 58
     number of failed beam   elements = 0
     number of failed shell  elements = 0
     number of failed tshell elements = 0
 Element deleted due to damage
     solid element 39076  failed at time  5.6476E-05
 f a i l e d   e l e m e n t   r e p o r t  time=  5.6476E-05
     number of failed solid  elements = 59
     number of failed beam   elements = 0
     number of failed shell  elements = 0
     number of failed tshell elements = 0
 Element deleted due to damage
     solid element 33892  failed at time  5.7503E-05
 f a i l e d   e l e m e n t   r e p o r t  time=  5.7503E-05
     number of failed solid  elements = 60
     number of failed beam   elements = 0
     number of failed shell  elements = 0
     number of failed tshell elements = 0
 Element deleted due to damage
     solid element 32239  failed at time  5.7929E-05
 f a i l e d   e l e m e n t   r e p o r t  time=  5.7929E-05
     number of failed solid  elements = 61
     number of failed beam   elements = 0
     number of failed shell  elements = 0
     number of failed tshell elements = 0
 Element deleted due to damage
     solid element 31607  failed at time  5.8590E-05
 f a i l e d   e l e m e n t   r e p o r t  time=  5.8590E-05
     number of failed solid  elements = 62
     number of failed beam   elements = 0
     number of failed shell  elements = 0
     number of failed tshell elements = 0

 S t o r a g e   a l l o c a t i o n   

 Memory required to complete solution   :     281K
 Additional dynamically allocated memory:      30M
                                   Total:      31M


 P r o c e s s o r   #         1

 T i m i n g   i n f o r m a t i o n
                        CPU(seconds)   %CPU  Clock(seconds) %Clock
  ----------------------------------------------------------------
  Keyword Processing ... 9.4859E-01    0.30     9.5295E-01    0.30
  MPP Decomposition .... 1.3977E+00    0.45     1.6825E+00    0.54
    Init Proc .......... 1.2324E+00    0.40     1.2379E+00    0.39
    Decomposition ...... 8.6048E-02    0.03     9.5712E-02    0.03
    Translation ........ 7.9213E-02    0.03     3.4884E-01    0.11
  Initialization ....... 2.4424E-01    0.08     3.8907E-01    0.12
    Init Proc Phase 1 .. 1.0140E-01    0.03     1.1906E-01    0.04
    Init Proc Phase 2 .. 1.2816E-02    0.00     3.9524E-02    0.01
  Element processing ... 1.8606E+02   59.66     1.8716E+02   59.56
    Solids ............. 1.7990E+02   57.68     1.8094E+02   57.58
    E Other ............ 9.4789E-02    0.03     9.5292E-02    0.03
  Binary databases ..... 5.3684E-01    0.17     5.4446E-01    0.17
  ASCII database ....... 1.9985E+00    0.64     2.0167E+00    0.64
  Contact algorithm .... 5.6224E+01   18.03     5.6555E+01   18.00
    Interf. ID         3 1.3130E+01    4.21     1.3210E+01    4.20
    Interf. ID         2 3.7774E+01   12.11     3.7991E+01   12.09
  Rigid Bodies ......... 1.9172E-01    0.06     1.9300E-01    0.06
  DEM .................. 1.8497E+01    5.93     1.8598E+01    5.92
    DEM self contact ... 1.7865E+01    5.73     1.7965E+01    5.72
  Time step size ....... 2.2931E+00    0.74     2.3042E+00    0.73
  Group force file ..... 4.5229E-02    0.01     5.1658E-02    0.02
  Others ............... 3.2992E+00    1.06     3.3216E+00    1.06
    Force Sharing ...... 2.9016E+00    0.93     2.9142E+00    0.93
  Misc. 1 .............. 2.3336E+01    7.48     2.3491E+01    7.48
    Scale Masses ....... 2.0276E-02    0.01     1.8734E-02    0.01
    Force Constraints .. 2.9655E-02    0.01     3.1680E-02    0.01
    Force to Accel ..... 2.1798E+00    0.70     2.1869E+00    0.70
    Constraint Sharing . 3.3191E-02    0.01     3.4145E-02    0.01
    Update RB nodes .... 4.2703E-02    0.01     4.4638E-02    0.01
  Misc. 2 .............. 5.2571E+00    1.69     5.2854E+00    1.68
  Misc. 3 .............. 1.0206E+01    3.27     1.0328E+01    3.29
  Misc. 4 .............. 1.3453E+00    0.43     1.3592E+00    0.43
    Timestep Init ...... 1.0092E+00    0.32     1.0106E+00    0.32
    Apply Loads ........ 2.6085E-01    0.08     2.6920E-01    0.09
  ----------------------------------------------------------------
  T o t a l s            3.1188E+02  100.00     3.1423E+02  100.00


 A v e r a g e s

 T i m i n g   i n f o r m a t i o n
                        CPU(seconds)   %CPU  Clock(seconds) %Clock
  ----------------------------------------------------------------
  Keyword Processing ... 7.6648E-01    0.25     9.5298E-01    0.30
    KW Reading ......... 1.9078E-02    0.01     3.3349E-02    0.01
    KW Writing ......... 1.1554E-02    0.00     5.5970E-02    0.02
  MPP Decomposition .... 1.1705E+00    0.38     1.6831E+00    0.54
    Init Proc .......... 1.0025E+00    0.32     1.2376E+00    0.39
    Decomposition ...... 6.9621E-02    0.02     9.5905E-02    0.03
    Translation ........ 9.8263E-02    0.03     3.4946E-01    0.11
  Initialization ....... 2.1642E-01    0.07     3.8626E-01    0.12
    Init Proc Phase 1 .. 1.0117E-01    0.03     1.1906E-01    0.04
    Init Proc Phase 2 .. 1.2657E-02    0.00     3.9517E-02    0.01
  Init solver .......... 6.2207E-04    0.00     4.2085E-03    0.00
  Element processing ... 1.4168E+02   45.78     1.4248E+02   45.34
    Solids ............. 1.3612E+02   43.99     1.3686E+02   43.55
    E Other ............ 1.3874E-01    0.04     1.3931E-01    0.04
  Binary databases ..... 5.3904E-01    0.17     5.6734E-01    0.18
  ASCII database ....... 2.2738E+00    0.73     4.2988E+00    1.37
  Contact algorithm .... 5.6462E+01   18.25     5.6771E+01   18.07
    Interf. ID         3 1.3377E+01    4.32     1.3452E+01    4.28
    Interf. ID         2 3.6548E+01   11.81     3.6744E+01   11.69
  Rigid Bodies ......... 2.6022E-01    0.08     2.6175E-01    0.08
  DEM .................. 1.9749E+01    6.38     1.9850E+01    6.32
    DEM self contact ... 1.9138E+01    6.18     1.9238E+01    6.12
  Time step size ....... 4.6745E+01   15.11     4.6968E+01   14.95
  Group force file ..... 5.5061E-02    0.02     6.3756E-02    0.02
  Others ............... 2.3080E+00    0.75     2.3937E+00    0.76
    Force Sharing ...... 1.8722E+00    0.60     1.8791E+00    0.60
  Misc. 1 .............. 2.2686E+01    7.33     2.2856E+01    7.27
    Scale Masses ....... 2.3502E-02    0.01     2.3034E-02    0.01
    Force Constraints .. 3.8688E-02    0.01     3.9531E-02    0.01
    Force to Accel ..... 2.2191E+00    0.72     2.2260E+00    0.71
    Constraint Sharing . 4.0013E-02    0.01     4.0732E-02    0.01
    Update RB nodes .... 4.9558E-02    0.02     5.1239E-02    0.02
  Misc. 2 .............. 5.1326E+00    1.66     5.1554E+00    1.64
  Misc. 3 .............. 8.0918E+00    2.61     8.2019E+00    2.61
  Misc. 4 .............. 1.3227E+00    0.43     1.3356E+00    0.43
    Timestep Init ...... 9.5245E-01    0.31     9.5226E-01    0.30
    Apply Loads ........ 2.9860E-01    0.10     3.0763E-01    0.10
  ----------------------------------------------------------------
  T o t a l s            3.0946E+02  100.00     3.1423E+02  100.00

 Problem time       =    6.0001E-05
 Problem cycle      =     58329
 Total CPU time     =       309 seconds (   0 hours  5 minutes  9 seconds)
 CPU time per zone cycle  =        447.900 nanoseconds
 Clock time per zone cycle=        454.233 nanoseconds

 Parallel execution with      4 MPP proc
 NLQ used/max                64/    64

  C P U   T i m i n g   i n f o r m a t i o n

  Processor   Hostname                              CPU/Avg_CPU  CPU(seconds)
  ---------------------------------------------------------------------------
  #       0   compute-0-3                               0.97629   3.0219E+02
  #       1   compute-0-3                               1.00779   3.1194E+02
  #       2   compute-0-3                               1.00799   3.1200E+02
  #       3   compute-0-3                               1.00792   3.1198E+02
  ---------------------------------------------------------------------------
  T o t a l s                                                     1.2381E+03


 Start time   04/08/2022 12:08:51  
 End time     04/08/2022 12:14:05  
 Elapsed time     314 seconds for   58329 cycles using     4 MPP procs
             (      0 hour   5 minutes 14 seconds)

 N o r m a l    t e r m i n a t i o n                          04/08/22 12:14:05
