      Date: 04/08/2022      Time: 12:08:51  

     ___________________________________________________
     |                                                 |
     |  Livermore Software Technology, LLC             |
     |                                                 |
     |  7374 Las Positas Road                          |
     |  Livermore, CA 94551                            |
     |  Tel: (925) 449-2500  Fax: (925) 449-2507       |
     |  www.lstc.com                                   |
     |_________________________________________________|
     |                                                 |
     |  LS-DYNA, A Program for Nonlinear Dynamic       |
     |  Analysis of Structures in Three Dimensions     |
     |  Version : mpp d R12.0.0   Date: 06/19/2020     |
     |  Revision: 148931          Time: 17:26:40       |
     |                                                 |
     |  Features enabled in this version:              |
     |    Distributed Memory Parallel                  |
     |    CESE CHEMISTRY EM ICFD STOCHASTIC_PARTICLES  |
     |    FFTW (multi-dimensional FFTW Library)        |
     |    ANSYS License (ANSYS202)                     |
     |    BigID  option                                |
     |                                                 |
     |  Licensed to:                                   |
     |  Issued by  : Pascale.SaneGuttin_02092022       |
     |                                                 |
     |  Platform   : Intel-MPI 2018 Xeon64             |
     |  OS Level   : Linux CentOS 6.5 uom              |
     |  Compiler   : Intel Fortran Compiler 16.0 AVX-2 |
     |  Hostname   : compute-0-3                       |
     |  Precision  : Double precision (I8R8)           |
     |  SVN Version: 148978                            |
     |                                                 |
     |  Unauthorized use infringes LST copyrights      |
     |_________________________________________________|


 Input file: DynaOpt.key                                                                     

 The native file format       : 64-bit small endian

 LS-DYNA will perform a structural only analysis 

 allocating  memory to   100000000 d     1985258 hex ownership chunk
 contracting memory to           7 d     1991132 material sort chunk
 expanding   memory to          12 d     2058221 nodal force sharing lists 1
 expanding   memory to          18 d     2038685 mat scratch
 expanding   memory to          19 d     3111692 tied nodes scratch
 expanding   memory to          22 d     3111692 tied node scratch
 contracting memory to          18 d     3111692 nodal rigid body scratch
 expanding   memory to        1298 d     3111692 DES sld2des scratch
 expanding   memory to       19798 d     3111692 DES sld2des scratch
 contracting memory to        2450 d     3111692 DES sld2des scratch
 contracting memory to          18 d     3111692 spring/damper scratch
 contracting memory to           1 d     2101637 Performing Decomposition -- Phase 3
 LS-DYNA keyword deck by LS-PrePost                                      
                         ls-dyna mpp.148931 d           date 06/19/2020
 expanding   memory to        4305 d     2101637 material, node and element data
 expanding   memory to        4399 d     2101656 mat add general damage 0
 expanding   memory to        4459 d     2101656 material added airbag porosity leakage 
 expanding   memory to        4477 d     2101656 material properties
 expanding   memory to        4495 d     2142246 element data for composite material
 expanding   memory to        4510 d     2488467 gradient of damage data
 expanding   memory to       17940 d     2532531 user control for contact interfaces
 contracting memory to       17926 d     2532531 thermal expansion 0
 expanding   memory to       17932 d     2532531 state of charge expansion 0
 expanding   memory to       17934 d     2532531 cross-sectional force definitions 0
 expanding   memory to       28107 d     2532567 temp index array for node sorting
 contracting memory to       17934 d     2532567 just because?
 expanding   memory to       20871 d     2552931 arbitrary element numbering input
 contracting memory to       17954 d    27546102 spc cards
 contracting memory to       17941 d    27546102 d3thdt storage
 expanding   memory to       17942 d    27636646 process element material data
 expanding   memory to       19943 d    27636640 load curve data
 contracting memory to       17949 d    27636640 user_define_loading_set
 expanding   memory to       18149 d    27636640 regularize time history data
 contracting memory to       17953 d    27636640 *DEFINE_ELEMENT_DEATH
 expanding   memory to       18208 d    27617144 contact interfaces
 expanding   memory to       39554 d    27617144 implicit contact 1
 expanding   memory to       63006 d    27617144 implicit contact 2
 contracting memory to       19208 d    27890145 contact segment data 1
 expanding   memory to       73223 d    28147254 contact segment data 3
 expanding   memory to      167191 d    28017815 read contacts, eroding check
 expanding   memory to      258261 d    28017815 eroding neighbors 2
 expanding   memory to      278821 d    28017815 eroding neighbors
 contracting memory to      114343 d    28475592 contact definition
 expanding   memory to      114349 d    28628247 contact history
 expanding   memory to      114403 d    28711861 rigid body
 expanding   memory to      114421 d    28712475 rbe2 scratch
 contracting memory to      114407 d    28775725 contact friction
 expanding   memory to      114497 d    28775731 joints
 expanding   memory to      116557 d    28775731 de sld2des
 expanding   memory to      116597 d    28784542 discrete elements regions
 expanding   memory to      116697 d    28994050 rigid bodies for disp. termination
 
 *** Warning 40859 (SOL+859)
     Cannot find elements of slave segment of interface 2
 deleted segment ID          n1          n2          n3          n4
       1 310640 310640 310640 310640
       2 310643 310643 310643 310643
       3 310644 310644 310644 310644
       4 310648 310648 310648 310648
       5 310652 310652 310652 310652
       6 310653 310653 310653 310653
       7 310659 310659 310659 310659
       8 310664 310664 310664 310664
       9 310666 310666 310666 310666
       10 310668 310668 310668 310668
       11 310679 310679 310679 310679
       12 310680 310680 310680 310680
       13 310682 310682 310682 310682
       14 310685 310685 310685 310685
       15 310689 310689 310689 310689
       16 310690 310690 310690 310690
       17 310696 310696 310696 310696
       18 310701 310701 310701 310701
       19 310703 310703 310703 310703
       20 310705 310705 310705 310705
       21 310714 310714 310714 310714
       22 310715 310715 310715 310715
       23 310718 310718 310718 310718
       24 310721 310721 310721 310721
       25 310722 310722 310722 310722
       26 310726 310726 310726 310726
       27 310727 310727 310727 310727
       28 310731 310731 310731 310731
       29 310732 310732 310732 310732
       30 310738 310738 310738 310738
       31 310743 310743 310743 310743
       32 310745 310745 310745 310745
       33 310747 310747 310747 310747
       34 310754 310754 310754 310754
       35 310759 310759 310759 310759
       36 310764 310764 310764 310764
       37 310765 310765 310765 310765
       38 310767 310767 310767 310767
       39 310770 310770 310770 310770
       40 310774 310774 310774 310774
       41 310775 310775 310775 310775
       42 310781 310781 310781 310781
       43 310786 310786 310786 310786
       44 310788 310788 310788 310788
       45 310790 310790 310790 310790
       46 310797 310797 310797 310797
       47 310798 310798 310798 310798
       48 310799 310799 310799 310799
       49 310801 310801 310801 310801
       50 310804 310804 310804 310804
       51 310807 310807 310807 310807
       52 310808 310808 310808 310808
       53 310810 310810 310810 310810
       54 310813 310813 310813 310813
       55 310817 310817 310817 310817
       56 310818 310818 310818 310818
       57 310824 310824 310824 310824
       58 310829 310829 310829 310829
       59 310831 310831 310831 310831
       60 310833 310833 310833 310833
       61 310840 310840 310840 310840
       62 310843 310843 310843 310843
       63 310846 310846 310846 310846
       64 310853 310853 310853 310853
       65 310854 310854 310854 310854
       66 310856 310856 310856 310856
       67 310859 310859 310859 310859
       68 310863 310863 310863 310863
       69 310864 310864 310864 310864
       70 310873 310873 310873 310873
       71 310876 310876 310876 310876
       72 310883 310883 310883 310883
       73 310890 310890 310890 310890
       74 310892 310892 310892 310892
       75 310893 310893 310893 310893
       76 310895 310895 310895 310895
       77 310898 310898 310898 310898
       78 310901 310901 310901 310901
       79 310911 310911 310911 310911
       80 310913 310913 310913 310913
       81 310915 310915 310915 310915
       82 310922 310922 310922 310922
       83 310926 310926 310926 310926
       84 310927 310927 310927 310927
       85 310929 310929 310929 310929
       86 310930 310930 310930 310930
       87 310934 310934 310934 310934
       88 310935 310935 310935 310935
       89 310936 310936 310936 310936
       90 310939 310939 310939 310939
       91 310950 310950 310950 310950
       92 310951 310951 310951 310951
       93 310953 310953 310953 310953
       94 310955 310955 310955 310955
       95 310962 310962 310962 310962
       96 310964 310964 310964 310964
       97 310965 310965 310965 310965
       98 310966 310966 310966 310966
       99 310968 310968 310968 310968
       100 310969 310969 310969 310969
       101 310971 310971 310971 310971
       102 310974 310974 310974 310974
       103 310978 310978 310978 310978
       104 310988 310988 310988 310988
       105 310989 310989 310989 310989
       106 310991 310991 310991 310991
       107 310993 310993 310993 310993
       108 311000 311000 311000 311000
       109 311001 311001 311001 311001
       110 311003 311003 311003 311003
       111 311006 311006 311006 311006
       112 311007 311007 311007 311007
       113 311009 311009 311009 311009
       114 311012 311012 311012 311012
       115 311016 311016 311016 311016
       116 311027 311027 311027 311027
       117 311028 311028 311028 311028
       118 311030 311030 311030 311030
       119 311032 311032 311032 311032
       120 311039 311039 311039 311039
       121 311041 311041 311041 311041
       122 311042 311042 311042 311042
       123 311043 311043 311043 311043
       124 311046 311046 311046 311046
       125 311047 311047 311047 311047
       126 311048 311048 311048 311048
       127 311050 311050 311050 311050
       128 311051 311051 311051 311051
       129 311053 311053 311053 311053
       130 311059 311059 311059 311059
       131 311070 311070 311070 311070
       132 311071 311071 311071 311071
       133 311073 311073 311073 311073
       134 311075 311075 311075 311075
       135 311082 311082 311082 311082
       136 311084 311084 311084 311084
       137 311086 311086 311086 311086
       138 311087 311087 311087 311087
       139 311089 311089 311089 311089
       140 311090 311090 311090 311090
       141 311092 311092 311092 311092
       142 311095 311095 311095 311095
       143 311106 311106 311106 311106
       144 311107 311107 311107 311107
       145 311109 311109 311109 311109
       146 311111 311111 311111 311111
       147 311118 311118 311118 311118
       148 311120 311120 311120 311120
       149 311122 311122 311122 311122
       150 311124 311124 311124 311124
       151 311125 311125 311125 311125
       152 311130 311130 311130 311130
       153 311131 311131 311131 311131
       154 311134 311134 311134 311134
       155 311135 311135 311135 311135
       156 311145 311145 311145 311145
       157 311146 311146 311146 311146
       158 311148 311148 311148 311148
       159 311150 311150 311150 311150
       160 311157 311157 311157 311157
       161 311159 311159 311159 311159
       162 311160 311160 311160 311160
       163 311162 311162 311162 311162
       164 311163 311163 311163 311163
       165 311165 311165 311165 311165
       166 311168 311168 311168 311168
       167 311172 311172 311172 311172
       168 311183 311183 311183 311183
       169 311184 311184 311184 311184
       170 311186 311186 311186 311186
       171 311188 311188 311188 311188
       172 311195 311195 311195 311195
       173 311198 311198 311198 311198
       174 311200 311200 311200 311200
       175 311201 311201 311201 311201
       176 311203 311203 311203 311203
       177 311206 311206 311206 311206
       178 311210 311210 311210 311210
       179 311221 311221 311221 311221
       180 311222 311222 311222 311222
       181 311224 311224 311224 311224
       182 311226 311226 311226 311226
       183 311233 311233 311233 311233
       184 311234 311234 311234 311234
       185 311236 311236 311236 311236
       186 311237 311237 311237 311237
       187 311239 311239 311239 311239
       188 311242 311242 311242 311242
       189 311245 311245 311245 311245
       190 311256 311256 311256 311256
       191 311257 311257 311257 311257
       192 311259 311259 311259 311259
       193 311261 311261 311261 311261
       194 311268 311268 311268 311268
       195 311269 311269 311269 311269
       196 311271 311271 311271 311271
       197 311276 311276 311276 311276
       198 311279 311279 311279 311279
       199 311280 311280 311280 311280
       200 311282 311282 311282 311282
       201 311283 311283 311283 311283
       202 311285 311285 311285 311285
       203 311289 311289 311289 311289
       204 311300 311300 311300 311300
       205 311301 311301 311301 311301
       206 311303 311303 311303 311303
       207 311305 311305 311305 311305
       208 311312 311312 311312 311312
       209 311315 311315 311315 311315
       210 311317 311317 311317 311317
       211 311319 311319 311319 311319
       212 311322 311322 311322 311322
       213 311323 311323 311323 311323
       214 311325 311325 311325 311325
       215 311328 311328 311328 311328
       216 311330 311330 311330 311330
       217 311332 311332 311332 311332
       218 311342 311342 311342 311342
       219 311343 311343 311343 311343
       220 311345 311345 311345 311345
       221 311347 311347 311347 311347
       222 311354 311354 311354 311354
       223 311358 311358 311358 311358
       224 311362 311362 311362 311362
       225 311366 311366 311366 311366
       226 311368 311368 311368 311368
       227 311371 311371 311371 311371
       228 311373 311373 311373 311373
       229 311375 311375 311375 311375
       230 311376 311376 311376 311376
       231 311383 311383 311383 311383
       232 311386 311386 311386 311386
       233 311387 311387 311387 311387
       234 311389 311389 311389 311389
       235 311391 311391 311391 311391
       236 311398 311398 311398 311398
       237 311405 311405 311405 311405
       238 311408 311408 311408 311408
       239 311409 311409 311409 311409
       240 311411 311411 311411 311411
       241 311414 311414 311414 311414
       242 311418 311418 311418 311418
       243 311426 311426 311426 311426
       244 311429 311429 311429 311429
       245 311430 311430 311430 311430
       246 311432 311432 311432 311432
       247 311434 311434 311434 311434
       248 311441 311441 311441 311441
       249 311443 311443 311443 311443
       250 311445 311445 311445 311445
       251 311448 311448 311448 311448
       252 311449 311449 311449 311449
       253 311451 311451 311451 311451
       254 311454 311454 311454 311454
       255 311458 311458 311458 311458
       256 311466 311466 311466 311466
       257 311469 311469 311469 311469
       258 311470 311470 311470 311470
       259 311472 311472 311472 311472
       260 311474 311474 311474 311474
       261 311481 311481 311481 311481
       262 311484 311484 311484 311484
       263 311487 311487 311487 311487
       264 311488 311488 311488 311488
       265 311490 311490 311490 311490
       266 311491 311491 311491 311491
       267 311492 311492 311492 311492
       268 311496 311496 311496 311496
       269 311504 311504 311504 311504
       270 311507 311507 311507 311507
       271 311508 311508 311508 311508
       272 311510 311510 311510 311510
       273 311512 311512 311512 311512
       274 311519 311519 311519 311519
       275 311525 311525 311525 311525
       276 311526 311526 311526 311526
       277 311531 311531 311531 311531
       278 311533 311533 311533 311533
       279 311535 311535 311535 311535
       280 311536 311536 311536 311536
       281 311543 311543 311543 311543
       282 311546 311546 311546 311546
       283 311547 311547 311547 311547
       284 311549 311549 311549 311549
       285 311551 311551 311551 311551
       286 311558 311558 311558 311558
       287 311565 311565 311565 311565
       288 311566 311566 311566 311566
       289 311568 311568 311568 311568
       290 311571 311571 311571 311571
       291 311575 311575 311575 311575
       292 311583 311583 311583 311583
       293 311586 311586 311586 311586
       294 311587 311587 311587 311587
       295 311589 311589 311589 311589
       296 311591 311591 311591 311591
       297 311598 311598 311598 311598
       298 311602 311602 311602 311602
       299 311603 311603 311603 311603
       300 311605 311605 311605 311605
       301 311608 311608 311608 311608
       302 311620 311620 311620 311620
       303 311623 311623 311623 311623
       304 311624 311624 311624 311624
       305 311626 311626 311626 311626
       306 311628 311628 311628 311628
       307 311635 311635 311635 311635
       308 311639 311639 311639 311639
       309 311640 311640 311640 311640
       310 311642 311642 311642 311642
       311 311645 311645 311645 311645
       312 311657 311657 311657 311657
       313 311660 311660 311660 311660
       314 311661 311661 311661 311661
       315 311663 311663 311663 311663
       316 311665 311665 311665 311665
       317 311672 311672 311672 311672
       318 311673 311673 311673 311673
       319 311679 311679 311679 311679
       320 311680 311680 311680 311680
       321 311682 311682 311682 311682
       322 311685 311685 311685 311685
       323 311697 311697 311697 311697
       324 311700 311700 311700 311700
       325 311701 311701 311701 311701
       326 311703 311703 311703 311703
       327 311705 311705 311705 311705
       328 311712 311712 311712 311712
       329 311714 311714 311714 311714
       330 311715 311715 311715 311715
       331 311719 311719 311719 311719
       332 311721 311721 311721 311721
       333 311724 311724 311724 311724
       334 311736 311736 311736 311736
       335 311739 311739 311739 311739
       336 311740 311740 311740 311740
       337 311742 311742 311742 311742
       338 311744 311744 311744 311744
       339 311751 311751 311751 311751
       340 311760 311760 311760 311760
       341 311762 311762 311762 311762
       342 311765 311765 311765 311765
       343 311777 311777 311777 311777
       344 311780 311780 311780 311780
       345 311781 311781 311781 311781
       346 311783 311783 311783 311783
       347 311785 311785 311785 311785
       348 311792 311792 311792 311792
       349 311797 311797 311797 311797
       350 311801 311801 311801 311801
       351 311802 311802 311802 311802
       352 311805 311805 311805 311805
       353 311817 311817 311817 311817
       354 311820 311820 311820 311820
       355 311821 311821 311821 311821
       356 311823 311823 311823 311823
       357 311825 311825 311825 311825
       358 311832 311832 311832 311832
       359 311841 311841 311841 311841
       360 311844 311844 311844 311844
       361 311855 311855 311855 311855
       362 311858 311858 311858 311858
       363 311859 311859 311859 311859
       364 311861 311861 311861 311861
       365 311863 311863 311863 311863
       366 311870 311870 311870 311870
       367 311877 311877 311877 311877
       368 311879 311879 311879 311879
       369 311882 311882 311882 311882
       370 311894 311894 311894 311894
       371 311897 311897 311897 311897
       372 311898 311898 311898 311898
       373 311900 311900 311900 311900
       374 311902 311902 311902 311902
       375 311909 311909 311909 311909
       376 311910 311910 311910 311910
       377 311918 311918 311918 311918
       378 311920 311920 311920 311920
       379 311923 311923 311923 311923
       380 311935 311935 311935 311935
       381 311938 311938 311938 311938
       382 311939 311939 311939 311939
       383 311941 311941 311941 311941
       384 311943 311943 311943 311943
       385 311950 311950 311950 311950
       386 311952 311952 311952 311952
       387 311957 311957 311957 311957
       388 311959 311959 311959 311959
       389 311961 311961 311961 311961
       390 311973 311973 311973 311973
       391 311976 311976 311976 311976
       392 311977 311977 311977 311977
       393 311979 311979 311979 311979
       394 311981 311981 311981 311981
       395 311988 311988 311988 311988
       396 311991 311991 311991 311991
       397 311992 311992 311992 311992
       398 311997 311997 311997 311997
       399 311999 311999 311999 311999
       400 312002 312002 312002 312002
       401 312013 312013 312013 312013
       402 312016 312016 312016 312016
       403 312017 312017 312017 312017
       404 312019 312019 312019 312019
       405 312021 312021 312021 312021
       406 312028 312028 312028 312028
       407 312030 312030 312030 312030
       408 312039 312039 312039 312039
       409 312040 312040 312040 312040
       410 312043 312043 312043 312043
       411 312054 312054 312054 312054
       412 312057 312057 312057 312057
       413 312058 312058 312058 312058
       414 312060 312060 312060 312060
       415 312062 312062 312062 312062
       416 312069 312069 312069 312069
       417 312070 312070 312070 312070
       418 312071 312071 312071 312071
       419 312072 312072 312072 312072
       420 312076 312076 312076 312076
       421 312078 312078 312078 312078
       422 312089 312089 312089 312089
       423 312092 312092 312092 312092
       424 312095 312095 312095 312095
       425 312096 312096 312096 312096
       426 312098 312098 312098 312098
       427 312100 312100 312100 312100
       428 312107 312107 312107 312107
       429 312109 312109 312109 312109
       430 312110 312110 312110 312110
       431 312114 312114 312114 312114
       432 312116 312116 312116 312116
       433 312118 312118 312118 312118
       434 312119 312119 312119 312119
       435 312128 312128 312128 312128
       436 312131 312131 312131 312131
       437 312135 312135 312135 312135
       438 312137 312137 312137 312137
       439 312139 312139 312139 312139
       440 312143 312143 312143 312143
       441 312146 312146 312146 312146
       442 312148 312148 312148 312148
       443 312149 312149 312149 312149
       444 312150 312150 312150 312150
       445 312153 312153 312153 312153
       446 312157 312157 312157 312157
       447 312159 312159 312159 312159
       448 312161 312161 312161 312161
       449 312162 312162 312162 312162
       450 312171 312171 312171 312171
       451 312174 312174 312174 312174
       452 312178 312178 312178 312178
       453 312180 312180 312180 312180
       454 312182 312182 312182 312182
       455 312186 312186 312186 312186
       456 312189 312189 312189 312189
       457 312194 312194 312194 312194
       458 312199 312199 312199 312199
       459 312200 312200 312200 312200
       460 312202 312202 312202 312202
       461 312203 312203 312203 312203
       462 312212 312212 312212 312212
       463 312215 312215 312215 312215
       464 312219 312219 312219 312219
       465 312221 312221 312221 312221
       466 312223 312223 312223 312223
       467 312227 312227 312227 312227
       468 312230 312230 312230 312230
       469 312231 312231 312231 312231
       470 312232 312232 312232 312232
       471 312236 312236 312236 312236
       472 312238 312238 312238 312238
       473 312240 312240 312240 312240
       474 312241 312241 312241 312241
       475 312250 312250 312250 312250
       476 312253 312253 312253 312253
       477 312257 312257 312257 312257
       478 312259 312259 312259 312259
       479 312260 312260 312260 312260
       480 312264 312264 312264 312264
       481 312267 312267 312267 312267
       482 312268 312268 312268 312268
       483 312270 312270 312270 312270
       484 312274 312274 312274 312274
       485 312276 312276 312276 312276
       486 312278 312278 312278 312278
       487 312279 312279 312279 312279
       488 312285 312285 312285 312285
       489 312289 312289 312289 312289
       490 312293 312293 312293 312293
       491 312295 312295 312295 312295
       492 312296 312296 312296 312296
       493 312297 312297 312297 312297
       494 312301 312301 312301 312301
       495 312304 312304 312304 312304
       496 312305 312305 312305 312305
       497 312310 312310 312310 312310
       498 312312 312312 312312 312312
       499 312314 312314 312314 312314
       500 312315 312315 312315 312315
       501 312324 312324 312324 312324
       502 312327 312327 312327 312327
       503 312331 312331 312331 312331
       504 312333 312333 312333 312333
       505 312334 312334 312334 312334
       506 312335 312335 312335 312335
       507 312339 312339 312339 312339
       508 312342 312342 312342 312342
       509 312343 312343 312343 312343
       510 312347 312347 312347 312347
       511 312349 312349 312349 312349
       512 312351 312351 312351 312351
       513 312352 312352 312352 312352
       514 312360 312360 312360 312360
       515 312364 312364 312364 312364
       516 312368 312368 312368 312368
       517 312370 312370 312370 312370
       518 312371 312371 312371 312371
       519 312372 312372 312372 312372
       520 312376 312376 312376 312376
       521 312379 312379 312379 312379
       522 312381 312381 312381 312381
       523 312385 312385 312385 312385
       524 312387 312387 312387 312387
       525 312389 312389 312389 312389
       526 312398 312398 312398 312398
       527 312401 312401 312401 312401
       528 312405 312405 312405 312405
       529 312407 312407 312407 312407
       530 312408 312408 312408 312408
       531 312409 312409 312409 312409
       532 312413 312413 312413 312413
       533 312416 312416 312416 312416
       534 312418 312418 312418 312418
       535 312422 312422 312422 312422
       536 312424 312424 312424 312424
       537 312426 312426 312426 312426
       538 312435 312435 312435 312435
       539 312438 312438 312438 312438
       540 312442 312442 312442 312442
       541 312444 312444 312444 312444
       542 312445 312445 312445 312445
       543 312446 312446 312446 312446
       544 312450 312450 312450 312450
       545 312453 312453 312453 312453
       546 312455 312455 312455 312455
       547 312459 312459 312459 312459
       548 312461 312461 312461 312461
       549 312464 312464 312464 312464
       550 312473 312473 312473 312473
       551 312476 312476 312476 312476
       552 312480 312480 312480 312480
       553 312482 312482 312482 312482
       554 312483 312483 312483 312483
       555 312484 312484 312484 312484
       556 312488 312488 312488 312488
       557 312491 312491 312491 312491
       558 312494 312494 312494 312494
       559 312497 312497 312497 312497
       560 312499 312499 312499 312499
       561 312501 312501 312501 312501
       562 312511 312511 312511 312511
       563 312514 312514 312514 312514
       564 312518 312518 312518 312518
       565 312520 312520 312520 312520
       566 312521 312521 312521 312521
       567 312522 312522 312522 312522
       568 312526 312526 312526 312526
       569 312529 312529 312529 312529
       570 312530 312530 312530 312530
       571 312535 312535 312535 312535
       572 312537 312537 312537 312537
       573 312539 312539 312539 312539
       574 312549 312549 312549 312549
       575 312552 312552 312552 312552
       576 312556 312556 312556 312556
       577 312558 312558 312558 312558
       578 312559 312559 312559 312559
       579 312560 312560 312560 312560
       580 312564 312564 312564 312564
       581 312567 312567 312567 312567
       582 312570 312570 312570 312570
       583 312571 312571 312571 312571
       584 312576 312576 312576 312576
       585 312578 312578 312578 312578
       586 312582 312582 312582 312582
       587 312590 312590 312590 312590
       588 312593 312593 312593 312593
       589 312597 312597 312597 312597
       590 312599 312599 312599 312599
       591 312600 312600 312600 312600
       592 312601 312601 312601 312601
       593 312605 312605 312605 312605
       594 312608 312608 312608 312608
       595 312609 312609 312609 312609
       596 312610 312610 312610 312610
       597 312611 312611 312611 312611
       598 312617 312617 312617 312617
       599 312621 312621 312621 312621
       600 312631 312631 312631 312631
       601 312633 312633 312633 312633
       602 312637 312637 312637 312637
       603 312639 312639 312639 312639
       604 312640 312640 312640 312640
       605 312641 312641 312641 312641
       606 312645 312645 312645 312645
       607 312648 312648 312648 312648
       608 312649 312649 312649 312649
       609 312650 312650 312650 312650
       610 312655 312655 312655 312655
       611 312659 312659 312659 312659
       612 312669 312669 312669 312669
       613 312672 312672 312672 312672
       614 312676 312676 312676 312676
       615 312678 312678 312678 312678
       616 312679 312679 312679 312679
       617 312680 312680 312680 312680
       618 312684 312684 312684 312684
       619 312687 312687 312687 312687
       620 312690 312690 312690 312690
       621 312695 312695 312695 312695
       622 312699 312699 312699 312699
       623 312709 312709 312709 312709
       624 312712 312712 312712 312712
       625 312716 312716 312716 312716
       626 312718 312718 312718 312718
       627 312719 312719 312719 312719
       628 312720 312720 312720 312720
       629 312724 312724 312724 312724
       630 312726 312726 312726 312726
       631 312727 312727 312727 312727
       632 312731 312731 312731 312731
       633 312735 312735 312735 312735
       634 312744 312744 312744 312744
       635 312748 312748 312748 312748
       636 312752 312752 312752 312752
       637 312754 312754 312754 312754
       638 312755 312755 312755 312755
       639 312756 312756 312756 312756
       640 312760 312760 312760 312760
       641 312762 312762 312762 312762
       642 312763 312763 312763 312763
       643 312767 312767 312767 312767
       644 312771 312771 312771 312771
       645 312780 312780 312780 312780
       646 312784 312784 312784 312784
       647 312788 312788 312788 312788
       648 312790 312790 312790 312790
       649 312791 312791 312791 312791
       650 312792 312792 312792 312792
       651 312796 312796 312796 312796
       652 312798 312798 312798 312798
       653 312799 312799 312799 312799
       654 312804 312804 312804 312804
       655 312810 312810 312810 312810
       656 312817 312817 312817 312817
       657 312821 312821 312821 312821
       658 312825 312825 312825 312825
       659 312827 312827 312827 312827
       660 312828 312828 312828 312828
       661 312829 312829 312829 312829
       662 312833 312833 312833 312833
       663 312836 312836 312836 312836
       664 312837 312837 312837 312837
       665 312845 312845 312845 312845
       666 312853 312853 312853 312853
       667 312857 312857 312857 312857
       668 312861 312861 312861 312861
       669 312863 312863 312863 312863
       670 312864 312864 312864 312864
       671 312865 312865 312865 312865
       672 312869 312869 312869 312869
       673 312872 312872 312872 312872
       674 312873 312873 312873 312873
       675 312876 312876 312876 312876
       676 312885 312885 312885 312885
       677 312892 312892 312892 312892
       678 312896 312896 312896 312896
       679 312900 312900 312900 312900
       680 312902 312902 312902 312902
       681 312903 312903 312903 312903
       682 312904 312904 312904 312904
       683 312908 312908 312908 312908
       684 312911 312911 312911 312911
       685 312919 312919 312919 312919
       686 312927 312927 312927 312927
       687 312931 312931 312931 312931
       688 312935 312935 312935 312935
       689 312937 312937 312937 312937
       690 312938 312938 312938 312938
       691 312939 312939 312939 312939
       692 312943 312943 312943 312943
       693 312946 312946 312946 312946
       694 312947 312947 312947 312947
       695 312948 312948 312948 312948
       696 312949 312949 312949 312949
       697 312959 312959 312959 312959
       698 312968 312968 312968 312968
       699 312972 312972 312972 312972
       700 312976 312976 312976 312976
       701 312978 312978 312978 312978
       702 312979 312979 312979 312979
       703 312980 312980 312980 312980
       704 312984 312984 312984 312984
       705 312987 312987 312987 312987
       706 312988 312988 312988 312988
       707 312995 312995 312995 312995
       708 313004 313004 313004 313004
       709 313008 313008 313008 313008
       710 313012 313012 313012 313012
       711 313014 313014 313014 313014
       712 313015 313015 313015 313015
       713 313019 313019 313019 313019
       714 313022 313022 313022 313022
       715 313026 313026 313026 313026
       716 313033 313033 313033 313033
       717 313042 313042 313042 313042
       718 313046 313046 313046 313046
       719 313050 313050 313050 313050
       720 313052 313052 313052 313052
       721 313053 313053 313053 313053
       722 313058 313058 313058 313058
       723 313061 313061 313061 313061
       724 313062 313062 313062 313062
       725 313064 313064 313064 313064
       726 313071 313071 313071 313071
       727 313079 313079 313079 313079
       728 313083 313083 313083 313083
       729 313087 313087 313087 313087
       730 313089 313089 313089 313089
       731 313090 313090 313090 313090
       732 313095 313095 313095 313095
       733 313098 313098 313098 313098
       734 313100 313100 313100 313100
       735 313107 313107 313107 313107
       736 313116 313116 313116 313116
       737 313120 313120 313120 313120
       738 313124 313124 313124 313124
       739 313126 313126 313126 313126
       740 313127 313127 313127 313127
       741 313132 313132 313132 313132
       742 313135 313135 313135 313135
       743 313139 313139 313139 313139
       744 313144 313144 313144 313144
       745 313146 313146 313146 313146
       746 313155 313155 313155 313155
       747 313159 313159 313159 313159
       748 313166 313166 313166 313166
       749 313169 313169 313169 313169
       750 313171 313171 313171 313171
       751 313174 313174 313174 313174
       752 313177 313177 313177 313177
       753 313184 313184 313184 313184
       754 313193 313193 313193 313193
       755 313197 313197 313197 313197
       756 313200 313200 313200 313200
       757 313201 313201 313201 313201
       758 313204 313204 313204 313204
       759 313209 313209 313209 313209
       760 313212 313212 313212 313212
       761 313213 313213 313213 313213
       762 313220 313220 313220 313220
       763 313228 313228 313228 313228
       764 313232 313232 313232 313232
       765 313235 313235 313235 313235
       766 313236 313236 313236 313236
       767 313239 313239 313239 313239
       768 313244 313244 313244 313244
       769 313247 313247 313247 313247
       770 313248 313248 313248 313248
       771 313254 313254 313254 313254
       772 313258 313258 313258 313258
       773 313263 313263 313263 313263
       774 313267 313267 313267 313267
       775 313270 313270 313270 313270
       776 313271 313271 313271 313271
       777 313274 313274 313274 313274
       778 313279 313279 313279 313279
       779 313282 313282 313282 313282
       780 313286 313286 313286 313286
       781 313293 313293 313293 313293
       782 313296 313296 313296 313296
       783 313302 313302 313302 313302
       784 313306 313306 313306 313306
       785 313309 313309 313309 313309
       786 313310 313310 313310 313310
       787 313313 313313 313313 313313
       788 313318 313318 313318 313318
       789 313321 313321 313321 313321
       790 313323 313323 313323 313323
       791 313330 313330 313330 313330
       792 313333 313333 313333 313333
       793 313339 313339 313339 313339
       794 313343 313343 313343 313343
       795 313346 313346 313346 313346
       796 313347 313347 313347 313347
       797 313350 313350 313350 313350
       798 313355 313355 313355 313355
       799 313358 313358 313358 313358
       800 313359 313359 313359 313359
       801 313361 313361 313361 313361
       802 313367 313367 313367 313367
       803 313370 313370 313370 313370
       804 313376 313376 313376 313376
       805 313380 313380 313380 313380
       806 313383 313383 313383 313383
       807 313384 313384 313384 313384
       808 313387 313387 313387 313387
       809 313392 313392 313392 313392
       810 313395 313395 313395 313395
       811 313398 313398 313398 313398
       812 313402 313402 313402 313402
       813 313407 313407 313407 313407
       814 313408 313408 313408 313408
       815 313411 313411 313411 313411
       816 313417 313417 313417 313417
       817 313421 313421 313421 313421
       818 313424 313424 313424 313424
       819 313425 313425 313425 313425
       820 313428 313428 313428 313428
       821 313433 313433 313433 313433
       822 313436 313436 313436 313436
       823 313438 313438 313438 313438
       824 313444 313444 313444 313444
       825 313445 313445 313445 313445
       826 313448 313448 313448 313448
       827 313454 313454 313454 313454
       828 313458 313458 313458 313458
       829 313461 313461 313461 313461
       830 313462 313462 313462 313462
       831 313465 313465 313465 313465
       832 313470 313470 313470 313470
       833 313473 313473 313473 313473
       834 313474 313474 313474 313474
       835 313477 313477 313477 313477
       836 313483 313483 313483 313483
       837 313484 313484 313484 313484
       838 313487 313487 313487 313487
       839 313493 313493 313493 313493
       840 313497 313497 313497 313497
       841 313500 313500 313500 313500
       842 313501 313501 313501 313501
       843 313504 313504 313504 313504
       844 313509 313509 313509 313509
       845 313512 313512 313512 313512
       846 313517 313517 313517 313517
       847 313523 313523 313523 313523
       848 313524 313524 313524 313524
       849 313527 313527 313527 313527
       850 313533 313533 313533 313533
       851 313537 313537 313537 313537
       852 313540 313540 313540 313540
       853 313541 313541 313541 313541
       854 313544 313544 313544 313544
       855 313549 313549 313549 313549
       856 313552 313552 313552 313552
       857 313556 313556 313556 313556
       858 313562 313562 313562 313562
       859 313563 313563 313563 313563
       860 313567 313567 313567 313567
       861 313572 313572 313572 313572
       862 313576 313576 313576 313576
       863 313579 313579 313579 313579
       864 313580 313580 313580 313580
       865 313583 313583 313583 313583
       866 313588 313588 313588 313588
       867 313591 313591 313591 313591
       868 313595 313595 313595 313595
       869 313600 313600 313600 313600
       870 313601 313601 313601 313601
       871 313605 313605 313605 313605
       872 313610 313610 313610 313610
       873 313614 313614 313614 313614
       874 313617 313617 313617 313617
       875 313618 313618 313618 313618
       876 313621 313621 313621 313621
       877 313626 313626 313626 313626
       878 313629 313629 313629 313629
       879 313630 313630 313630 313630
       880 313633 313633 313633 313633
       881 313639 313639 313639 313639
       882 313640 313640 313640 313640
       883 313644 313644 313644 313644
       884 313649 313649 313649 313649
       885 313653 313653 313653 313653
       886 313656 313656 313656 313656
       887 313657 313657 313657 313657
       888 313660 313660 313660 313660
       889 313665 313665 313665 313665
       890 313668 313668 313668 313668
       891 313671 313671 313671 313671
       892 313677 313677 313677 313677
       893 313678 313678 313678 313678
       894 313682 313682 313682 313682
       895 313687 313687 313687 313687
       896 313691 313691 313691 313691
       897 313694 313694 313694 313694
       898 313697 313697 313697 313697
       899 313702 313702 313702 313702
       900 313705 313705 313705 313705
       901 313708 313708 313708 313708
       902 313712 313712 313712 313712
       903 313716 313716 313716 313716
       904 313718 313718 313718 313718
       905 313719 313719 313719 313719
       906 313723 313723 313723 313723
       907 313728 313728 313728 313728
       908 313732 313732 313732 313732
       909 313735 313735 313735 313735
       910 313739 313739 313739 313739
       911 313744 313744 313744 313744
       912 313747 313747 313747 313747
       913 313749 313749 313749 313749
       914 313752 313752 313752 313752
       915 313756 313756 313756 313756
       916 313758 313758 313758 313758
       917 313759 313759 313759 313759
       918 313763 313763 313763 313763
       919 313768 313768 313768 313768
       920 313772 313772 313772 313772
       921 313775 313775 313775 313775
       922 313779 313779 313779 313779
       923 313783 313783 313783 313783
       924 313786 313786 313786 313786
       925 313791 313791 313791 313791
       926 313794 313794 313794 313794
       927 313796 313796 313796 313796
       928 313797 313797 313797 313797
       929 313801 313801 313801 313801
       930 313806 313806 313806 313806
       931 313810 313810 313810 313810
       932 313812 313812 313812 313812
       933 313816 313816 313816 313816
       934 313818 313818 313818 313818
       935 313821 313821 313821 313821
       936 313824 313824 313824 313824
       937 313827 313827 313827 313827
       938 313832 313832 313832 313832
       939 313834 313834 313834 313834
       940 313835 313835 313835 313835
       941 313839 313839 313839 313839
       942 313844 313844 313844 313844
       943 313848 313848 313848 313848
       944 313851 313851 313851 313851
       945 313855 313855 313855 313855
       946 313857 313857 313857 313857
       947 313860 313860 313860 313860
       948 313863 313863 313863 313863
       949 313866 313866 313866 313866
       950 313871 313871 313871 313871
       951 313875 313875 313875 313875
       952 313877 313877 313877 313877
       953 313881 313881 313881 313881
       954 313886 313886 313886 313886
       955 313890 313890 313890 313890
       956 313893 313893 313893 313893
       957 313897 313897 313897 313897
       958 313899 313899 313899 313899
       959 313902 313902 313902 313902
       960 313905 313905 313905 313905
       961 313906 313906 313906 313906
       962 313908 313908 313908 313908
       963 313911 313911 313911 313911
       964 313916 313916 313916 313916
       965 313918 313918 313918 313918
       966 313919 313919 313919 313919
       967 313923 313923 313923 313923
       968 313928 313928 313928 313928
       969 313932 313932 313932 313932
       970 313935 313935 313935 313935
       971 313939 313939 313939 313939
       972 313941 313941 313941 313941
       973 313944 313944 313944 313944
       974 313947 313947 313947 313947
       975 313952 313952 313952 313952
       976 313956 313956 313956 313956
       977 313958 313958 313958 313958
       978 313962 313962 313962 313962
       979 313967 313967 313967 313967
       980 313971 313971 313971 313971
       981 313974 313974 313974 313974
       982 313978 313978 313978 313978
       983 313980 313980 313980 313980
       984 313983 313983 313983 313983
       985 313986 313986 313986 313986
       986 313989 313989 313989 313989
       987 313994 313994 313994 313994
       988 313996 313996 313996 313996
       989 313997 313997 313997 313997
       990 314001 314001 314001 314001
       991 314006 314006 314006 314006
       992 314010 314010 314010 314010
       993 314013 314013 314013 314013
       994 314017 314017 314017 314017
       995 314019 314019 314019 314019
       996 314022 314022 314022 314022
       997 314025 314025 314025 314025
       998 314030 314030 314030 314030
       999 314035 314035 314035 314035
       1000 314037 314037 314037 314037
       1001 314038 314038 314038 314038
       1002 314042 314042 314042 314042
       1003 314047 314047 314047 314047
       1004 314051 314051 314051 314051
       1005 314054 314054 314054 314054
       1006 314058 314058 314058 314058
       1007 314060 314060 314060 314060
       1008 314063 314063 314063 314063
       1009 314066 314066 314066 314066
       1010 314077 314077 314077 314077
       1011 314079 314079 314079 314079
       1012 314080 314080 314080 314080
       1013 314084 314084 314084 314084
       1014 314089 314089 314089 314089
       1015 314092 314092 314092 314092
       1016 314095 314095 314095 314095
       1017 314099 314099 314099 314099
       1018 314101 314101 314101 314101
       1019 314104 314104 314104 314104
       1020 314107 314107 314107 314107
       1021 314118 314118 314118 314118
       1022 314119 314119 314119 314119
       1023 314120 314120 314120 314120
       1024 314125 314125 314125 314125
       1025 314130 314130 314130 314130
       1026 314134 314134 314134 314134
       1027 314137 314137 314137 314137
       1028 314141 314141 314141 314141
       1029 314143 314143 314143 314143
       1030 314146 314146 314146 314146
       1031 314149 314149 314149 314149
       1032 314150 314150 314150 314150
       1033 314159 314159 314159 314159
       1034 314161 314161 314161 314161
       1035 314162 314162 314162 314162
       1036 314166 314166 314166 314166
       1037 314171 314171 314171 314171
       1038 314175 314175 314175 314175
       1039 314178 314178 314178 314178
       1040 314182 314182 314182 314182
       1041 314184 314184 314184 314184
       1042 314187 314187 314187 314187
       1043 314190 314190 314190 314190
       1044 314193 314193 314193 314193
       1045 314199 314199 314199 314199
       1046 314201 314201 314201 314201
       1047 314202 314202 314202 314202
       1048 314205 314205 314205 314205
       1049 314209 314209 314209 314209
       1050 314213 314213 314213 314213
       1051 314216 314216 314216 314216
       1052 314220 314220 314220 314220
       1053 314222 314222 314222 314222
       1054 314225 314225 314225 314225
       1055 314228 314228 314228 314228
       1056 314233 314233 314233 314233
       1057 314237 314237 314237 314237
       1058 314238 314238 314238 314238
       1059 314239 314239 314239 314239
       1060 314243 314243 314243 314243
       1061 314244 314244 314244 314244
       1062 314248 314248 314248 314248
       1063 314252 314252 314252 314252
       1064 314255 314255 314255 314255
       1065 314259 314259 314259 314259
       1066 314261 314261 314261 314261
       1067 314264 314264 314264 314264
       1068 314267 314267 314267 314267
       1069 314275 314275 314275 314275
       1070 314277 314277 314277 314277
       1071 314278 314278 314278 314278
       1072 314280 314280 314280 314280
       1073 314282 314282 314282 314282
       1074 314287 314287 314287 314287
       1075 314291 314291 314291 314291
       1076 314294 314294 314294 314294
       1077 314298 314298 314298 314298
       1078 314300 314300 314300 314300
       1079 314303 314303 314303 314303
       1080 314306 314306 314306 314306
       1081 314307 314307 314307 314307
       1082 314308 314308 314308 314308
       1083 314311 314311 314311 314311
       1084 314315 314315 314315 314315
       1085 314316 314316 314316 314316
       1086 314317 314317 314317 314317
       1087 314320 314320 314320 314320
       1088 314322 314322 314322 314322
       1089 314326 314326 314326 314326
       1090 314330 314330 314330 314330
       1091 314333 314333 314333 314333
       1092 314337 314337 314337 314337
       1093 314339 314339 314339 314339
       1094 314342 314342 314342 314342
       1095 314345 314345 314345 314345
       1096 314352 314352 314352 314352
       1097 314354 314354 314354 314354
       1098 314355 314355 314355 314355
       1099 314357 314357 314357 314357
       1100 314359 314359 314359 314359
       1101 314364 314364 314364 314364
       1102 314368 314368 314368 314368
       1103 314371 314371 314371 314371
       1104 314375 314375 314375 314375
       1105 314377 314377 314377 314377
       1106 314378 314378 314378 314378
       1107 314380 314380 314380 314380
       1108 314383 314383 314383 314383
       1109 314384 314384 314384 314384
       1110 314388 314388 314388 314388
       1111 314393 314393 314393 314393
       1112 314394 314394 314394 314394
       1113 314395 314395 314395 314395
       1114 314398 314398 314398 314398
       1115 314404 314404 314404 314404
       1116 314408 314408 314408 314408
       1117 314411 314411 314411 314411
       1118 314415 314415 314415 314415
       1119 314417 314417 314417 314417
       1120 314418 314418 314418 314418
       1121 314420 314420 314420 314420
       1122 314423 314423 314423 314423
       1123 314426 314426 314426 314426
       1124 314431 314431 314431 314431
       1125 314433 314433 314433 314433
       1126 314434 314434 314434 314434
       1127 314435 314435 314435 314435
       1128 314442 314442 314442 314442
       1129 314448 314448 314448 314448
       1130 314452 314452 314452 314452
       1131 314454 314454 314454 314454
       1132 314455 314455 314455 314455
       1133 314457 314457 314457 314457
       1134 314460 314460 314460 314460
       1135 314463 314463 314463 314463
       1136 314468 314468 314468 314468
       1137 314469 314469 314469 314469
       1138 314470 314470 314470 314470
       1139 314473 314473 314473 314473
       1140 314479 314479 314479 314479
       1141 314486 314486 314486 314486
       1142 314490 314490 314490 314490
       1143 314492 314492 314492 314492
       1144 314493 314493 314493 314493
       1145 314495 314495 314495 314495
       1146 314498 314498 314498 314498
       1147 314509 314509 314509 314509
       1148 314511 314511 314511 314511
       1149 314512 314512 314512 314512
       1150 314516 314516 314516 314516
       1151 314521 314521 314521 314521
       1152 314528 314528 314528 314528
       1153 314532 314532 314532 314532
       1154 314534 314534 314534 314534
       1155 314535 314535 314535 314535
       1156 314537 314537 314537 314537
       1157 314540 314540 314540 314540
       1158 314543 314543 314543 314543
       1159 314546 314546 314546 314546
       1160 314551 314551 314551 314551
       1161 314553 314553 314553 314553
       1162 314554 314554 314554 314554
       1163 314558 314558 314558 314558
       1164 314563 314563 314563 314563
       1165 314570 314570 314570 314570
       1166 314574 314574 314574 314574
       1167 314576 314576 314576 314576
       1168 314577 314577 314577 314577
       1169 314579 314579 314579 314579
       1170 314582 314582 314582 314582
       1171 314584 314584 314584 314584
       1172 314590 314590 314590 314590
       1173 314591 314591 314591 314591
       1174 314592 314592 314592 314592
       1175 314597 314597 314597 314597
       1176 314602 314602 314602 314602
       1177 314609 314609 314609 314609
       1178 314613 314613 314613 314613
       1179 314615 314615 314615 314615
       1180 314616 314616 314616 314616
       1181 314618 314618 314618 314618
       1182 314621 314621 314621 314621
       1183 314623 314623 314623 314623
       1184 314629 314629 314629 314629
       1185 314631 314631 314631 314631
       1186 314632 314632 314632 314632
       1187 314636 314636 314636 314636
       1188 314641 314641 314641 314641
       1189 314648 314648 314648 314648
       1190 314652 314652 314652 314652
       1191 314654 314654 314654 314654
       1192 314655 314655 314655 314655
       1193 314657 314657 314657 314657
       1194 314660 314660 314660 314660
       1195 314666 314666 314666 314666
       1196 314667 314667 314667 314667
       1197 314668 314668 314668 314668
       1198 314673 314673 314673 314673
       1199 314678 314678 314678 314678
       1200 314685 314685 314685 314685
       1201 314689 314689 314689 314689
       1202 314691 314691 314691 314691
       1203 314694 314694 314694 314694
       1204 314697 314697 314697 314697
       1205 314698 314698 314698 314698
       1206 314705 314705 314705 314705
       1207 314707 314707 314707 314707
       1208 314708 314708 314708 314708
       1209 314711 314711 314711 314711
       1210 314717 314717 314717 314717
       1211 314724 314724 314724 314724
       1212 314730 314730 314730 314730
       1213 314733 314733 314733 314733
       1214 314736 314736 314736 314736
       1215 314737 314737 314737 314737
       1216 314744 314744 314744 314744
       1217 314746 314746 314746 314746
       1218 314747 314747 314747 314747
       1219 314749 314749 314749 314749
       1220 314754 314754 314754 314754
       1221 314761 314761 314761 314761
       1222 314767 314767 314767 314767
       1223 314770 314770 314770 314770
       1224 314773 314773 314773 314773
       1225 314780 314780 314780 314780
       1226 314781 314781 314781 314781
       1227 314782 314782 314782 314782
       1228 314786 314786 314786 314786
       1229 314791 314791 314791 314791
       1230 314792 314792 314792 314792
       1231 314799 314799 314799 314799
       1232 314805 314805 314805 314805
       1233 314808 314808 314808 314808
       1234 314811 314811 314811 314811
       1235 314819 314819 314819 314819
       1236 314821 314821 314821 314821
       1237 314822 314822 314822 314822
       1238 314825 314825 314825 314825
       1239 314830 314830 314830 314830
       1240 314831 314831 314831 314831
       1241 314838 314838 314838 314838
       1242 314844 314844 314844 314844
       1243 314847 314847 314847 314847
       1244 314850 314850 314850 314850
       1245 314851 314851 314851 314851
       1246 314860 314860 314860 314860
       1247 314861 314861 314861 314861
       1248 314862 314862 314862 314862
       1249 314866 314866 314866 314866
       1250 314871 314871 314871 314871
       1251 314872 314872 314872 314872
       1252 314879 314879 314879 314879
       1253 314885 314885 314885 314885
       1254 314888 314888 314888 314888
       1255 314891 314891 314891 314891
       1256 314899 314899 314899 314899
       1257 314904 314904 314904 314904
       1258 314906 314906 314906 314906
       1259 314907 314907 314907 314907
       1260 314910 314910 314910 314910
       1261 314915 314915 314915 314915
       1262 314916 314916 314916 314916
       1263 314923 314923 314923 314923
       1264 314929 314929 314929 314929
       1265 314932 314932 314932 314932
       1266 314935 314935 314935 314935
       1267 314939 314939 314939 314939
       1268 314944 314944 314944 314944
       1269 314945 314945 314945 314945
       1270 314946 314946 314946 314946
       1271 314950 314950 314950 314950
       1272 314955 314955 314955 314955
       1273 314956 314956 314956 314956
       1274 314963 314963 314963 314963
       1275 314969 314969 314969 314969
       1276 314972 314972 314972 314972
       1277 314975 314975 314975 314975
       1278 314979 314979 314979 314979
       1279 314984 314984 314984 314984
       1280 314986 314986 314986 314986
       1281 314987 314987 314987 314987
       1282 314990 314990 314990 314990
       1283 314995 314995 314995 314995
       1284 314996 314996 314996 314996
       1285 315002 315002 315002 315002
       1286 315008 315008 315008 315008
       1287 315011 315011 315011 315011
       1288 315014 315014 315014 315014
       1289 315020 315020 315020 315020
       1290 315025 315025 315025 315025
       1291 315026 315026 315026 315026
       1292 315027 315027 315027 315027
       1293 315031 315031 315031 315031
       1294 315036 315036 315036 315036
       1295 315037 315037 315037 315037
       1296 315043 315043 315043 315043
       1297 315049 315049 315049 315049
       1298 315052 315052 315052 315052
       1299 315055 315055 315055 315055
       1300 315065 315065 315065 315065
       1301 315067 315067 315067 315067
       1302 315068 315068 315068 315068
       1303 315071 315071 315071 315071
       1304 315076 315076 315076 315076
       1305 315077 315077 315077 315077
       1306 315083 315083 315083 315083
       1307 315089 315089 315089 315089
       1308 315092 315092 315092 315092
       1309 315095 315095 315095 315095
       1310 315107 315107 315107 315107
       1311 315109 315109 315109 315109
       1312 315110 315110 315110 315110
       1313 315113 315113 315113 315113
       1314 315118 315118 315118 315118
       1315 315119 315119 315119 315119
       1316 315125 315125 315125 315125
       1317 315131 315131 315131 315131
       1318 315134 315134 315134 315134
       1319 315137 315137 315137 315137
       1320 315145 315145 315145 315145
       1321 315147 315147 315147 315147
       1322 315148 315148 315148 315148
       1323 315151 315151 315151 315151
       1324 315156 315156 315156 315156
       1325 315157 315157 315157 315157
       1326 315164 315164 315164 315164
       1327 315170 315170 315170 315170
       1328 315173 315173 315173 315173
       1329 315176 315176 315176 315176
       1330 315188 315188 315188 315188
       1331 315190 315190 315190 315190
       1332 315191 315191 315191 315191
       1333 315194 315194 315194 315194
       1334 315197 315197 315197 315197
       1335 315198 315198 315198 315198
       1336 315205 315205 315205 315205
       1337 315211 315211 315211 315211
       1338 315216 315216 315216 315216
       1339 315217 315217 315217 315217
       1340 315226 315226 315226 315226
       1341 315228 315228 315228 315228
       1342 315229 315229 315229 315229
       1343 315232 315232 315232 315232
       1344 315237 315237 315237 315237
       1345 315238 315238 315238 315238
       1346 315245 315245 315245 315245
       1347 315251 315251 315251 315251
       1348 315256 315256 315256 315256
       1349 315258 315258 315258 315258
       1350 315263 315263 315263 315263
       1351 315265 315265 315265 315265
       1352 315266 315266 315266 315266
       1353 315269 315269 315269 315269
       1354 315273 315273 315273 315273
       1355 315274 315274 315274 315274
       1356 315280 315280 315280 315280
       1357 315286 315286 315286 315286
       1358 315289 315289 315289 315289
       1359 315292 315292 315292 315292
       1360 315294 315294 315294 315294
       1361 315295 315295 315295 315295
       1362 315296 315296 315296 315296
       1363 315302 315302 315302 315302
       1364 315304 315304 315304 315304
       1365 315305 315305 315305 315305
       1366 315308 315308 315308 315308
       1367 315313 315313 315313 315313
       1368 315320 315320 315320 315320
       1369 315326 315326 315326 315326
       1370 315329 315329 315329 315329
       1371 315332 315332 315332 315332
       1372 315341 315341 315341 315341
       1373 315343 315343 315343 315343
       1374 315344 315344 315344 315344
       1375 315347 315347 315347 315347
       1376 315352 315352 315352 315352
       1377 315358 315358 315358 315358
       1378 315359 315359 315359 315359
       1379 315365 315365 315365 315365
       1380 315368 315368 315368 315368
       1381 315371 315371 315371 315371
       1382 315378 315378 315378 315378
       1383 315380 315380 315380 315380
       1384 315383 315383 315383 315383
       1385 315388 315388 315388 315388
       1386 315390 315390 315390 315390
       1387 315394 315394 315394 315394
       1388 315395 315395 315395 315395
       1389 315401 315401 315401 315401
       1390 315404 315404 315404 315404
       1391 315407 315407 315407 315407
       1392 315415 315415 315415 315415
       1393 315418 315418 315418 315418
       1394 315421 315421 315421 315421
       1395 315425 315425 315425 315425
       1396 315426 315426 315426 315426
       1397 315432 315432 315432 315432
       1398 315433 315433 315433 315433
       1399 315439 315439 315439 315439
       1400 315442 315442 315442 315442
       1401 315445 315445 315445 315445
       1402 315446 315446 315446 315446
       1403 315447 315447 315447 315447
       1404 315452 315452 315452 315452
       1405 315455 315455 315455 315455
       1406 315458 315458 315458 315458
       1407 315462 315462 315462 315462
       1408 315463 315463 315463 315463
       1409 315466 315466 315466 315466
       1410 315470 315470 315470 315470
       1411 315471 315471 315471 315471
       1412 315477 315477 315477 315477
       1413 315480 315480 315480 315480
       1414 315483 315483 315483 315483
       1415 315484 315484 315484 315484
       1416 315490 315490 315490 315490
       1417 315493 315493 315493 315493
       1418 315496 315496 315496 315496
       1419 315499 315499 315499 315499
       1420 315501 315501 315501 315501
       1421 315502 315502 315502 315502
       1422 315508 315508 315508 315508
       1423 315509 315509 315509 315509
       1424 315515 315515 315515 315515
       1425 315517 315517 315517 315517
       1426 315520 315520 315520 315520
       1427 315527 315527 315527 315527
       1428 315530 315530 315530 315530
       1429 315533 315533 315533 315533
       1430 315536 315536 315536 315536
       1431 315538 315538 315538 315538
       1432 315541 315541 315541 315541
       1433 315545 315545 315545 315545
       1434 315546 315546 315546 315546
       1435 315552 315552 315552 315552
       1436 315554 315554 315554 315554
       1437 315555 315555 315555 315555
       1438 315558 315558 315558 315558
       1439 315565 315565 315565 315565
       1440 315568 315568 315568 315568
       1441 315571 315571 315571 315571
       1442 315574 315574 315574 315574
       1443 315575 315575 315575 315575
       1444 315576 315576 315576 315576
       1445 315582 315582 315582 315582
       1446 315583 315583 315583 315583
       1447 315589 315589 315589 315589
       1448 315591 315591 315591 315591
       1449 315592 315592 315592 315592
       1450 315595 315595 315595 315595
       1451 315603 315603 315603 315603
       1452 315606 315606 315606 315606
       1453 315609 315609 315609 315609
       1454 315610 315610 315610 315610
       1455 315611 315611 315611 315611
       1456 315614 315614 315614 315614
       1457 315615 315615 315615 315615
       1458 315621 315621 315621 315621
       1459 315622 315622 315622 315622
       1460 315628 315628 315628 315628
       1461 315630 315630 315630 315630
       1462 315631 315631 315631 315631
       1463 315634 315634 315634 315634
       1464 315642 315642 315642 315642
       1465 315645 315645 315645 315645
       1466 315646 315646 315646 315646
       1467 315649 315649 315649 315649
       1468 315651 315651 315651 315651
       1469 315653 315653 315653 315653
       1470 315657 315657 315657 315657
       1471 315658 315658 315658 315658
       1472 315664 315664 315664 315664
       1473 315666 315666 315666 315666
       1474 315667 315667 315667 315667
       1475 315670 315670 315670 315670
       1476 315672 315672 315672 315672
       1477 315679 315679 315679 315679
       1478 315682 315682 315682 315682
       1479 315683 315683 315683 315683
       1480 315684 315684 315684 315684
       1481 315687 315687 315687 315687
       1482 315688 315688 315688 315688
       1483 315694 315694 315694 315694
       1484 315695 315695 315695 315695
       1485 315701 315701 315701 315701
       1486 315703 315703 315703 315703
       1487 315704 315704 315704 315704
       1488 315707 315707 315707 315707
       1489 315710 315710 315710 315710
       1490 315712 315712 315712 315712
       1491 315719 315719 315719 315719
       1492 315721 315721 315721 315721
       1493 315723 315723 315723 315723
       1494 315726 315726 315726 315726
       1495 315727 315727 315727 315727
       1496 315728 315728 315728 315728
       1497 315734 315734 315734 315734
       1498 315735 315735 315735 315735
       1499 315741 315741 315741 315741
       1500 315743 315743 315743 315743
       1501 315744 315744 315744 315744
       1502 315747 315747 315747 315747
       1503 315749 315749 315749 315749
       1504 315753 315753 315753 315753
       1505 315756 315756 315756 315756
       1506 315759 315759 315759 315759
       1507 315760 315760 315760 315760
       1508 315763 315763 315763 315763
       1509 315765 315765 315765 315765
       1510 315770 315770 315770 315770
       1511 315771 315771 315771 315771
       1512 315777 315777 315777 315777
       1513 315779 315779 315779 315779
       1514 315780 315780 315780 315780
       1515 315783 315783 315783 315783
       1516 315795 315795 315795 315795
       1517 315797 315797 315797 315797
       1518 315799 315799 315799 315799
       1519 315802 315802 315802 315802
       1520 315803 315803 315803 315803
       1521 315804 315804 315804 315804
       1522 315810 315810 315810 315810
       1523 315811 315811 315811 315811
       1524 315817 315817 315817 315817
       1525 315819 315819 315819 315819
       1526 315820 315820 315820 315820
       1527 315823 315823 315823 315823
       1528 315835 315835 315835 315835
       1529 315836 315836 315836 315836
       1530 315838 315838 315838 315838
       1531 315839 315839 315839 315839
       1532 315842 315842 315842 315842
       1533 315843 315843 315843 315843
       1534 315844 315844 315844 315844
       1535 315850 315850 315850 315850
       1536 315851 315851 315851 315851
       1537 315857 315857 315857 315857
       1538 315859 315859 315859 315859
       1539 315860 315860 315860 315860
       1540 315863 315863 315863 315863
       1541 315877 315877 315877 315877
       1542 315878 315878 315878 315878
       1543 315879 315879 315879 315879
       1544 315881 315881 315881 315881
       1545 315883 315883 315883 315883
       1546 315885 315885 315885 315885
       1547 315886 315886 315886 315886
       1548 315892 315892 315892 315892
       1549 315898 315898 315898 315898
       1550 315900 315900 315900 315900
       1551 315901 315901 315901 315901
       1552 315904 315904 315904 315904
       1553 315916 315916 315916 315916
       1554 315917 315917 315917 315917
       1555 315918 315918 315918 315918
       1556 315921 315921 315921 315921
       1557 315923 315923 315923 315923
       1558 315924 315924 315924 315924
       1559 315925 315925 315925 315925
       1560 315930 315930 315930 315930
       1561 315931 315931 315931 315931
       1562 315932 315932 315932 315932
       1563 315938 315938 315938 315938
       1564 315940 315940 315940 315940
       1565 315941 315941 315941 315941
       1566 315944 315944 315944 315944
       1567 315946 315946 315946 315946
       1568 315948 315948 315948 315948
       1569 315949 315949 315949 315949
       1570 315958 315958 315958 315958
       1571 315959 315959 315959 315959
       1572 315961 315961 315961 315961
       1573 315962 315962 315962 315962
       1574 315963 315963 315963 315963
       1575 315967 315967 315967 315967
       1576 315969 315969 315969 315969
       1577 315972 315972 315972 315972
       1578 315973 315973 315973 315973
       1579 315979 315979 315979 315979
       1580 315981 315981 315981 315981
       1581 315982 315982 315982 315982
       1582 315985 315985 315985 315985
       1583 315987 315987 315987 315987
       1584 315988 315988 315988 315988
       1585 315998 315998 315998 315998
       1586 315999 315999 315999 315999
       1587 316001 316001 316001 316001
       1588 316002 316002 316002 316002
       1589 316005 316005 316005 316005
       1590 316006 316006 316006 316006
       1591 316007 316007 316007 316007
       1592 316013 316013 316013 316013
       1593 316014 316014 316014 316014
       1594 316020 316020 316020 316020
       1595 316022 316022 316022 316022
       1596 316023 316023 316023 316023
       1597 316026 316026 316026 316026
       1598 316037 316037 316037 316037
       1599 316038 316038 316038 316038
       1600 316040 316040 316040 316040
       1601 316041 316041 316041 316041
       1602 316042 316042 316042 316042
       1603 316045 316045 316045 316045
       1604 316046 316046 316046 316046
       1605 316052 316052 316052 316052
       1606 316053 316053 316053 316053
       1607 316059 316059 316059 316059
       1608 316061 316061 316061 316061
       1609 316062 316062 316062 316062
       1610 316065 316065 316065 316065
       1611 316075 316075 316075 316075
       1612 316076 316076 316076 316076
       1613 316078 316078 316078 316078
       1614 316079 316079 316079 316079
       1615 316082 316082 316082 316082
       1616 316084 316084 316084 316084
       1617 316086 316086 316086 316086
       1618 316090 316090 316090 316090
       1619 316091 316091 316091 316091
       1620 316097 316097 316097 316097
       1621 316099 316099 316099 316099
       1622 316100 316100 316100 316100
       1623 316103 316103 316103 316103
       1624 316105 316105 316105 316105
       1625 316113 316113 316113 316113
       1626 316115 316115 316115 316115
       1627 316117 316117 316117 316117
       1628 316118 316118 316118 316118
       1629 316121 316121 316121 316121
       1630 316122 316122 316122 316122
       1631 316123 316123 316123 316123
       1632 316129 316129 316129 316129
       1633 316130 316130 316130 316130
       1634 316136 316136 316136 316136
       1635 316138 316138 316138 316138
       1636 316139 316139 316139 316139
       1637 316142 316142 316142 316142
       1638 316145 316145 316145 316145
       1639 316147 316147 316147 316147
       1640 316154 316154 316154 316154
       1641 316155 316155 316155 316155
       1642 316157 316157 316157 316157
       1643 316158 316158 316158 316158
       1644 316160 316160 316160 316160
       1645 316161 316161 316161 316161
       1646 316164 316164 316164 316164
       1647 316168 316168 316168 316168
       1648 316169 316169 316169 316169
       1649 316175 316175 316175 316175
       1650 316177 316177 316177 316177
       1651 316178 316178 316178 316178
       1652 316181 316181 316181 316181
       1653 316182 316182 316182 316182
       1654 316192 316192 316192 316192
       1655 316193 316193 316193 316193
       1656 316194 316194 316194 316194
       1657 316196 316196 316196 316196
       1658 316199 316199 316199 316199
       1659 316200 316200 316200 316200
       1660 316201 316201 316201 316201
       1661 316207 316207 316207 316207
       1662 316208 316208 316208 316208
       1663 316211 316211 316211 316211
       1664 316214 316214 316214 316214
       1665 316216 316216 316216 316216
       1666 316217 316217 316217 316217
       1667 316220 316220 316220 316220
       1668 316224 316224 316224 316224
       1669 316233 316233 316233 316233
       1670 316234 316234 316234 316234
       1671 316236 316236 316236 316236
       1672 316237 316237 316237 316237
       1673 316240 316240 316240 316240
       1674 316241 316241 316241 316241
       1675 316244 316244 316244 316244
       1676 316248 316248 316248 316248
       1677 316249 316249 316249 316249
       1678 316252 316252 316252 316252
       1679 316255 316255 316255 316255
       1680 316257 316257 316257 316257
       1681 316258 316258 316258 316258
       1682 316261 316261 316261 316261
       1683 316262 316262 316262 316262
       1684 316264 316264 316264 316264
       1685 316274 316274 316274 316274
       1686 316275 316275 316275 316275
       1687 316276 316276 316276 316276
       1688 316278 316278 316278 316278
       1689 316281 316281 316281 316281
       1690 316282 316282 316282 316282
       1691 316283 316283 316283 316283
       1692 316290 316290 316290 316290
       1693 316293 316293 316293 316293
       1694 316296 316296 316296 316296
       1695 316298 316298 316298 316298
       1696 316299 316299 316299 316299
       1697 316302 316302 316302 316302
       1698 316304 316304 316304 316304
       1699 316315 316315 316315 316315
       1700 316316 316316 316316 316316
       1701 316318 316318 316318 316318
       1702 316319 316319 316319 316319
       1703 316321 316321 316321 316321
       1704 316322 316322 316322 316322
       1705 316323 316323 316323 316323
       1706 316324 316324 316324 316324
       1707 316331 316331 316331 316331
       1708 316334 316334 316334 316334
       1709 316337 316337 316337 316337
       1710 316339 316339 316339 316339
       1711 316340 316340 316340 316340
       1712 316343 316343 316343 316343
       1713 316346 316346 316346 316346
       1714 316357 316357 316357 316357
       1715 316358 316358 316358 316358
       1716 316359 316359 316359 316359
       1717 316361 316361 316361 316361
       1718 316364 316364 316364 316364
       1719 316366 316366 316366 316366
       1720 316368 316368 316368 316368
       1721 316373 316373 316373 316373
       1722 316376 316376 316376 316376
       1723 316379 316379 316379 316379
       1724 316381 316381 316381 316381
       1725 316382 316382 316382 316382
       1726 316385 316385 316385 316385
       1727 316387 316387 316387 316387
       1728 316388 316388 316388 316388
       1729 316395 316395 316395 316395
       1730 316397 316397 316397 316397
       1731 316398 316398 316398 316398
       1732 316400 316400 316400 316400
       1733 316401 316401 316401 316401
       1734 316405 316405 316405 316405
       1735 316406 316406 316406 316406
       1736 316413 316413 316413 316413
       1737 316416 316416 316416 316416
       1738 316419 316419 316419 316419
       1739 316421 316421 316421 316421
       1740 316422 316422 316422 316422
       1741 316425 316425 316425 316425
       1742 316427 316427 316427 316427
       1743 316429 316429 316429 316429
       1744 316438 316438 316438 316438
       1745 316439 316439 316439 316439
       1746 316440 316440 316440 316440
       1747 316442 316442 316442 316442
       1748 316445 316445 316445 316445
       1749 316446 316446 316446 316446
       1750 316447 316447 316447 316447
       1751 316454 316454 316454 316454
       1752 316457 316457 316457 316457
       1753 316460 316460 316460 316460
       1754 316462 316462 316462 316462
       1755 316463 316463 316463 316463
       1756 316466 316466 316466 316466
       1757 316469 316469 316469 316469
       1758 316471 316471 316471 316471
       1759 316479 316479 316479 316479
       1760 316481 316481 316481 316481
       1761 316482 316482 316482 316482
       1762 316484 316484 316484 316484
       1763 316485 316485 316485 316485
       1764 316488 316488 316488 316488
       1765 316490 316490 316490 316490
       1766 316492 316492 316492 316492
       1767 316497 316497 316497 316497
       1768 316500 316500 316500 316500
       1769 316503 316503 316503 316503
       1770 316505 316505 316505 316505
       1771 316506 316506 316506 316506
       1772 316509 316509 316509 316509
       1773 316510 316510 316510 316510
       1774 316511 316511 316511 316511
       1775 316517 316517 316517 316517
       1776 316520 316520 316520 316520
       1777 316521 316521 316521 316521
       1778 316523 316523 316523 316523
       1779 316524 316524 316524 316524
       1780 316527 316527 316527 316527
       1781 316528 316528 316528 316528
       1782 316529 316529 316529 316529
       1783 316536 316536 316536 316536
       1784 316538 316538 316538 316538
       1785 316541 316541 316541 316541
       1786 316543 316543 316543 316543
       1787 316544 316544 316544 316544
       1788 316547 316547 316547 316547
       1789 316548 316548 316548 316548
       1790 316549 316549 316549 316549
       1791 316555 316555 316555 316555
       1792 316558 316558 316558 316558
       1793 316560 316560 316560 316560
       1794 316561 316561 316561 316561
       1795 316563 316563 316563 316563
       1796 316564 316564 316564 316564
       1797 316565 316565 316565 316565
       1798 316572 316572 316572 316572
       1799 316574 316574 316574 316574
       1800 316575 316575 316575 316575
       1801 316578 316578 316578 316578
       1802 316580 316580 316580 316580
       1803 316581 316581 316581 316581
       1804 316584 316584 316584 316584
       1805 316585 316585 316585 316585
       1806 316592 316592 316592 316592
       1807 316594 316594 316594 316594
       1808 316595 316595 316595 316595
       1809 316597 316597 316597 316597
       1810 316598 316598 316598 316598
       1811 316601 316601 316601 316601
       1812 316602 316602 316602 316602
       1813 316603 316603 316603 316603
       1814 316610 316610 316610 316610
       1815 316612 316612 316612 316612
       1816 316613 316613 316613 316613
       1817 316616 316616 316616 316616
       1818 316618 316618 316618 316618
       1819 316619 316619 316619 316619
       1820 316622 316622 316622 316622
       1821 316625 316625 316625 316625
       1822 316633 316633 316633 316633
       1823 316634 316634 316634 316634
       1824 316635 316635 316635 316635
       1825 316637 316637 316637 316637
       1826 316638 316638 316638 316638
       1827 316641 316641 316641 316641
       1828 316642 316642 316642 316642
       1829 316643 316643 316643 316643
       1830 316650 316650 316650 316650
       1831 316652 316652 316652 316652
       1832 316653 316653 316653 316653
       1833 316656 316656 316656 316656
       1834 316658 316658 316658 316658
       1835 316659 316659 316659 316659
       1836 316662 316662 316662 316662
       1837 316671 316671 316671 316671
       1838 316673 316673 316673 316673
       1839 316674 316674 316674 316674
       1840 316676 316676 316676 316676
       1841 316677 316677 316677 316677
       1842 316680 316680 316680 316680
       1843 316681 316681 316681 316681
       1844 316682 316682 316682 316682
       1845 316689 316689 316689 316689
       1846 316691 316691 316691 316691
       1847 316692 316692 316692 316692
       1848 316695 316695 316695 316695
       1849 316697 316697 316697 316697
       1850 316698 316698 316698 316698
       1851 316709 316709 316709 316709
       1852 316711 316711 316711 316711
       1853 316712 316712 316712 316712
       1854 316714 316714 316714 316714
       1855 316715 316715 316715 316715
       1856 316718 316718 316718 316718
       1857 316719 316719 316719 316719
       1858 316720 316720 316720 316720
       1859 316727 316727 316727 316727
       1860 316729 316729 316729 316729
       1861 316730 316730 316730 316730
       1862 316733 316733 316733 316733
       1863 316735 316735 316735 316735
       1864 316736 316736 316736 316736
       1865 316741 316741 316741 316741
       1866 316749 316749 316749 316749
       1867 316751 316751 316751 316751
       1868 316753 316753 316753 316753
       1869 316755 316755 316755 316755
       1870 316757 316757 316757 316757
       1871 316758 316758 316758 316758
       1872 316759 316759 316759 316759
       1873 316766 316766 316766 316766
       1874 316768 316768 316768 316768
       1875 316769 316769 316769 316769
       1876 316772 316772 316772 316772
       1877 316775 316775 316775 316775
[...]
     number of failed beam   elements = 0
     number of failed shell  elements = 0
     number of failed tshell elements = 0
 f a i l e d   e l e m e n t   r e p o r t  time=  3.5275E-05
     number of failed solid  elements = 0
     number of failed beam   elements = 0
     number of failed shell  elements = 0
     number of failed tshell elements = 0
 f a i l e d   e l e m e n t   r e p o r t  time=  3.5612E-05
     number of failed solid  elements = 0
     number of failed beam   elements = 0
     number of failed shell  elements = 0
     number of failed tshell elements = 0
 f a i l e d   e l e m e n t   r e p o r t  time=  3.5780E-05
     number of failed solid  elements = 0
     number of failed beam   elements = 0
     number of failed shell  elements = 0
     number of failed tshell elements = 0
 f a i l e d   e l e m e n t   r e p o r t  time=  3.5946E-05
     number of failed solid  elements = 0
     number of failed beam   elements = 0
     number of failed shell  elements = 0
     number of failed tshell elements = 0
 f a i l e d   e l e m e n t   r e p o r t  time=  3.6053E-05
     number of failed solid  elements = 0
     number of failed beam   elements = 0
     number of failed shell  elements = 0
     number of failed tshell elements = 0
 f a i l e d   e l e m e n t   r e p o r t  time=  3.6097E-05
     number of failed solid  elements = 0
     number of failed beam   elements = 0
     number of failed shell  elements = 0
     number of failed tshell elements = 0
 f a i l e d   e l e m e n t   r e p o r t  time=  3.6324E-05
     number of failed solid  elements = 0
     number of failed beam   elements = 0
     number of failed shell  elements = 0
     number of failed tshell elements = 0
 f a i l e d   e l e m e n t   r e p o r t  time=  3.6849E-05
     number of failed solid  elements = 0
     number of failed beam   elements = 0
     number of failed shell  elements = 0
     number of failed tshell elements = 0
 f a i l e d   e l e m e n t   r e p o r t  time=  3.6934E-05
     number of failed solid  elements = 0
     number of failed beam   elements = 0
     number of failed shell  elements = 0
     number of failed tshell elements = 0
 f a i l e d   e l e m e n t   r e p o r t  time=  3.7004E-05
     number of failed solid  elements = 0
     number of failed beam   elements = 0
     number of failed shell  elements = 0
     number of failed tshell elements = 0
 f a i l e d   e l e m e n t   r e p o r t  time=  3.7129E-05
     number of failed solid  elements = 0
     number of failed beam   elements = 0
     number of failed shell  elements = 0
     number of failed tshell elements = 0
 f a i l e d   e l e m e n t   r e p o r t  time=  3.7382E-05
     number of failed solid  elements = 0
     number of failed beam   elements = 0
     number of failed shell  elements = 0
     number of failed tshell elements = 0
 f a i l e d   e l e m e n t   r e p o r t  time=  3.7475E-05
     number of failed solid  elements = 0
     number of failed beam   elements = 0
     number of failed shell  elements = 0
     number of failed tshell elements = 0
 f a i l e d   e l e m e n t   r e p o r t  time=  3.7523E-05
     number of failed solid  elements = 0
     number of failed beam   elements = 0
     number of failed shell  elements = 0
     number of failed tshell elements = 0
 f a i l e d   e l e m e n t   r e p o r t  time=  3.7636E-05
     number of failed solid  elements = 0
     number of failed beam   elements = 0
     number of failed shell  elements = 0
     number of failed tshell elements = 0
 f a i l e d   e l e m e n t   r e p o r t  time=  3.7727E-05
     number of failed solid  elements = 0
     number of failed beam   elements = 0
     number of failed shell  elements = 0
     number of failed tshell elements = 0
 f a i l e d   e l e m e n t   r e p o r t  time=  3.7744E-05
     number of failed solid  elements = 0
     number of failed beam   elements = 0
     number of failed shell  elements = 0
     number of failed tshell elements = 0
 f a i l e d   e l e m e n t   r e p o r t  time=  3.7800E-05
     number of failed solid  elements = 0
     number of failed beam   elements = 0
     number of failed shell  elements = 0
     number of failed tshell elements = 0
 f a i l e d   e l e m e n t   r e p o r t  time=  3.8123E-05
     number of failed solid  elements = 0
     number of failed beam   elements = 0
     number of failed shell  elements = 0
     number of failed tshell elements = 0
 f a i l e d   e l e m e n t   r e p o r t  time=  3.8186E-05
     number of failed solid  elements = 0
     number of failed beam   elements = 0
     number of failed shell  elements = 0
     number of failed tshell elements = 0
 f a i l e d   e l e m e n t   r e p o r t  time=  3.8309E-05
     number of failed solid  elements = 0
     number of failed beam   elements = 0
     number of failed shell  elements = 0
     number of failed tshell elements = 0
 f a i l e d   e l e m e n t   r e p o r t  time=  3.8402E-05
     number of failed solid  elements = 0
     number of failed beam   elements = 0
     number of failed shell  elements = 0
     number of failed tshell elements = 0
 f a i l e d   e l e m e n t   r e p o r t  time=  3.8478E-05
     number of failed solid  elements = 0
     number of failed beam   elements = 0
     number of failed shell  elements = 0
     number of failed tshell elements = 0
 f a i l e d   e l e m e n t   r e p o r t  time=  3.8513E-05
     number of failed solid  elements = 0
     number of failed beam   elements = 0
     number of failed shell  elements = 0
     number of failed tshell elements = 0
 f a i l e d   e l e m e n t   r e p o r t  time=  3.8542E-05
     number of failed solid  elements = 0
     number of failed beam   elements = 0
     number of failed shell  elements = 0
     number of failed tshell elements = 0
 f a i l e d   e l e m e n t   r e p o r t  time=  3.8564E-05
     number of failed solid  elements = 0
     number of failed beam   elements = 0
     number of failed shell  elements = 0
     number of failed tshell elements = 0
 f a i l e d   e l e m e n t   r e p o r t  time=  3.8623E-05
     number of failed solid  elements = 0
     number of failed beam   elements = 0
     number of failed shell  elements = 0
     number of failed tshell elements = 0
 f a i l e d   e l e m e n t   r e p o r t  time=  3.8631E-05
     number of failed solid  elements = 0
     number of failed beam   elements = 0
     number of failed shell  elements = 0
     number of failed tshell elements = 0
 f a i l e d   e l e m e n t   r e p o r t  time=  3.8671E-05
     number of failed solid  elements = 0
     number of failed beam   elements = 0
     number of failed shell  elements = 0
     number of failed tshell elements = 0
 f a i l e d   e l e m e n t   r e p o r t  time=  3.8704E-05
     number of failed solid  elements = 0
     number of failed beam   elements = 0
     number of failed shell  elements = 0
     number of failed tshell elements = 0
 f a i l e d   e l e m e n t   r e p o r t  time=  3.8743E-05
     number of failed solid  elements = 0
     number of failed beam   elements = 0
     number of failed shell  elements = 0
     number of failed tshell elements = 0
 f a i l e d   e l e m e n t   r e p o r t  time=  3.9755E-05
     number of failed solid  elements = 0
     number of failed beam   elements = 0
     number of failed shell  elements = 0
     number of failed tshell elements = 0
 f a i l e d   e l e m e n t   r e p o r t  time=  3.9760E-05
     number of failed solid  elements = 0
     number of failed beam   elements = 0
     number of failed shell  elements = 0
     number of failed tshell elements = 0
 f a i l e d   e l e m e n t   r e p o r t  time=  3.9850E-05
     number of failed solid  elements = 0
     number of failed beam   elements = 0
     number of failed shell  elements = 0
     number of failed tshell elements = 0
 f a i l e d   e l e m e n t   r e p o r t  time=  3.9892E-05
     number of failed solid  elements = 0
     number of failed beam   elements = 0
     number of failed shell  elements = 0
     number of failed tshell elements = 0
 f a i l e d   e l e m e n t   r e p o r t  time=  4.0048E-05
     number of failed solid  elements = 0
     number of failed beam   elements = 0
     number of failed shell  elements = 0
     number of failed tshell elements = 0
 f a i l e d   e l e m e n t   r e p o r t  time=  4.0127E-05
     number of failed solid  elements = 0
     number of failed beam   elements = 0
     number of failed shell  elements = 0
     number of failed tshell elements = 0
 f a i l e d   e l e m e n t   r e p o r t  time=  4.0463E-05
     number of failed solid  elements = 0
     number of failed beam   elements = 0
     number of failed shell  elements = 0
     number of failed tshell elements = 0
 f a i l e d   e l e m e n t   r e p o r t  time=  4.1174E-05
     number of failed solid  elements = 0
     number of failed beam   elements = 0
     number of failed shell  elements = 0
     number of failed tshell elements = 0
 f a i l e d   e l e m e n t   r e p o r t  time=  4.1199E-05
     number of failed solid  elements = 0
     number of failed beam   elements = 0
     number of failed shell  elements = 0
     number of failed tshell elements = 0
 f a i l e d   e l e m e n t   r e p o r t  time=  4.2027E-05
     number of failed solid  elements = 0
     number of failed beam   elements = 0
     number of failed shell  elements = 0
     number of failed tshell elements = 0
 f a i l e d   e l e m e n t   r e p o r t  time=  4.2049E-05
     number of failed solid  elements = 0
     number of failed beam   elements = 0
     number of failed shell  elements = 0
     number of failed tshell elements = 0
 f a i l e d   e l e m e n t   r e p o r t  time=  4.2130E-05
     number of failed solid  elements = 0
     number of failed beam   elements = 0
     number of failed shell  elements = 0
     number of failed tshell elements = 0
 f a i l e d   e l e m e n t   r e p o r t  time=  4.3620E-05
     number of failed solid  elements = 0
     number of failed beam   elements = 0
     number of failed shell  elements = 0
     number of failed tshell elements = 0
 f a i l e d   e l e m e n t   r e p o r t  time=  4.3674E-05
     number of failed solid  elements = 0
     number of failed beam   elements = 0
     number of failed shell  elements = 0
     number of failed tshell elements = 0
 f a i l e d   e l e m e n t   r e p o r t  time=  4.3720E-05
     number of failed solid  elements = 0
     number of failed beam   elements = 0
     number of failed shell  elements = 0
     number of failed tshell elements = 0
 f a i l e d   e l e m e n t   r e p o r t  time=  4.3763E-05
     number of failed solid  elements = 0
     number of failed beam   elements = 0
     number of failed shell  elements = 0
     number of failed tshell elements = 0
 f a i l e d   e l e m e n t   r e p o r t  time=  4.3810E-05
     number of failed solid  elements = 0
     number of failed beam   elements = 0
     number of failed shell  elements = 0
     number of failed tshell elements = 0
 f a i l e d   e l e m e n t   r e p o r t  time=  4.8840E-05
     number of failed solid  elements = 0
     number of failed beam   elements = 0
     number of failed shell  elements = 0
     number of failed tshell elements = 0
 f a i l e d   e l e m e n t   r e p o r t  time=  4.9582E-05
     number of failed solid  elements = 0
     number of failed beam   elements = 0
     number of failed shell  elements = 0
     number of failed tshell elements = 0
 f a i l e d   e l e m e n t   r e p o r t  time=  5.2612E-05
     number of failed solid  elements = 0
     number of failed beam   elements = 0
     number of failed shell  elements = 0
     number of failed tshell elements = 0
 f a i l e d   e l e m e n t   r e p o r t  time=  5.5406E-05
     number of failed solid  elements = 0
     number of failed beam   elements = 0
     number of failed shell  elements = 0
     number of failed tshell elements = 0
 f a i l e d   e l e m e n t   r e p o r t  time=  5.6476E-05
     number of failed solid  elements = 0
     number of failed beam   elements = 0
     number of failed shell  elements = 0
     number of failed tshell elements = 0
 f a i l e d   e l e m e n t   r e p o r t  time=  5.7503E-05
     number of failed solid  elements = 0
     number of failed beam   elements = 0
     number of failed shell  elements = 0
     number of failed tshell elements = 0
 f a i l e d   e l e m e n t   r e p o r t  time=  5.7929E-05
     number of failed solid  elements = 0
     number of failed beam   elements = 0
     number of failed shell  elements = 0
     number of failed tshell elements = 0
 f a i l e d   e l e m e n t   r e p o r t  time=  5.8590E-05
     number of failed solid  elements = 0
     number of failed beam   elements = 0
     number of failed shell  elements = 0
     number of failed tshell elements = 0

 S t o r a g e   a l l o c a t i o n   

 Memory required to complete solution   :     279K
 Additional dynamically allocated memory:      30M
                                   Total:      31M


 P r o c e s s o r   #         2

 T i m i n g   i n f o r m a t i o n
                        CPU(seconds)   %CPU  Clock(seconds) %Clock
  ----------------------------------------------------------------
  Keyword Processing ... 9.4871E-01    0.30     9.5295E-01    0.30
  MPP Decomposition .... 1.4085E+00    0.45     1.6825E+00    0.54
    Init Proc .......... 1.2324E+00    0.40     1.2378E+00    0.39
    Decomposition ...... 8.6056E-02    0.03     9.5710E-02    0.03
    Translation ........ 8.9965E-02    0.03     3.4888E-01    0.11
  Initialization ....... 2.4304E-01    0.08     3.8491E-01    0.12
    Init Proc Phase 1 .. 1.0290E-01    0.03     1.1907E-01    0.04
    Init Proc Phase 2 .. 1.2945E-02    0.00     3.9523E-02    0.01
  Init solver .......... 7.8261E-04    0.00     6.1700E-03    0.00
  Element processing ... 1.2838E+02   41.16     1.2914E+02   41.10
    Solids ............. 1.2251E+02   39.27     1.2321E+02   39.21
    E Other ............ 1.2498E-01    0.04     1.2539E-01    0.04
  Binary databases ..... 5.6000E-01    0.18     5.6905E-01    0.18
  ASCII database ....... 2.0620E+00    0.66     2.0795E+00    0.66
  Contact algorithm .... 5.5507E+01   17.79     5.5827E+01   17.77
    Interf. ID         3 1.2759E+01    4.09     1.2837E+01    4.09
    Interf. ID         2 3.5710E+01   11.45     3.5912E+01   11.43
  Rigid Bodies ......... 3.4160E-01    0.11     3.4356E-01    0.11
  DEM .................. 2.0550E+01    6.59     2.0664E+01    6.58
    DEM self contact ... 1.9925E+01    6.39     2.0037E+01    6.38
  Time step size ....... 6.0008E+01   19.24     6.0326E+01   19.20
  Group force file ..... 6.2331E-02    0.02     7.3730E-02    0.02
  Others ............... 1.9642E+00    0.63     1.9769E+00    0.63
    Force Sharing ...... 1.4956E+00    0.48     1.5006E+00    0.48
  Misc. 1 .............. 2.3032E+01    7.38     2.3180E+01    7.38
    Scale Masses ....... 3.2459E-02    0.01     3.2392E-02    0.01
    Force Constraints .. 4.2853E-02    0.01     4.3405E-02    0.01
    Force to Accel ..... 2.1798E+00    0.70     2.1876E+00    0.70
    Constraint Sharing . 3.6512E-02    0.01     3.7180E-02    0.01
    Update RB nodes .... 4.4411E-02    0.01     4.6700E-02    0.01
  Misc. 2 .............. 5.2164E+00    1.67     5.2378E+00    1.67
  Misc. 3 .............. 1.0326E+01    3.31     1.0447E+01    3.32
  Misc. 4 .............. 1.3258E+00    0.43     1.3398E+00    0.43
    Timestep Init ...... 9.8435E-01    0.32     9.8373E-01    0.31
    Apply Loads ........ 2.6833E-01    0.09     2.7781E-01    0.09
  ----------------------------------------------------------------
  T o t a l s            3.1194E+02  100.00     3.1423E+02  100.00


 A v e r a g e s

 T i m i n g   i n f o r m a t i o n
                        CPU(seconds)   %CPU  Clock(seconds) %Clock
  ----------------------------------------------------------------
  Keyword Processing ... 7.6648E-01    0.25     9.5298E-01    0.30
    KW Reading ......... 1.9078E-02    0.01     3.3349E-02    0.01
    KW Writing ......... 1.1554E-02    0.00     5.5970E-02    0.02
  MPP Decomposition .... 1.1705E+00    0.38     1.6831E+00    0.54
    Init Proc .......... 1.0025E+00    0.32     1.2376E+00    0.39
    Decomposition ...... 6.9621E-02    0.02     9.5905E-02    0.03
    Translation ........ 9.8263E-02    0.03     3.4946E-01    0.11
  Initialization ....... 2.1642E-01    0.07     3.8626E-01    0.12
    Init Proc Phase 1 .. 1.0117E-01    0.03     1.1906E-01    0.04
    Init Proc Phase 2 .. 1.2657E-02    0.00     3.9517E-02    0.01
  Init solver .......... 6.2207E-04    0.00     4.2085E-03    0.00
  Element processing ... 1.4168E+02   45.78     1.4248E+02   45.34
    Solids ............. 1.3612E+02   43.99     1.3686E+02   43.55
    E Other ............ 1.3874E-01    0.04     1.3931E-01    0.04
  Binary databases ..... 5.3904E-01    0.17     5.6734E-01    0.18
  ASCII database ....... 2.2738E+00    0.73     4.2988E+00    1.37
  Contact algorithm .... 5.6462E+01   18.25     5.6771E+01   18.07
    Interf. ID         3 1.3377E+01    4.32     1.3452E+01    4.28
    Interf. ID         2 3.6548E+01   11.81     3.6744E+01   11.69
  Rigid Bodies ......... 2.6022E-01    0.08     2.6175E-01    0.08
  DEM .................. 1.9749E+01    6.38     1.9850E+01    6.32
    DEM self contact ... 1.9138E+01    6.18     1.9238E+01    6.12
  Time step size ....... 4.6745E+01   15.11     4.6968E+01   14.95
  Group force file ..... 5.5061E-02    0.02     6.3756E-02    0.02
  Others ............... 2.3080E+00    0.75     2.3937E+00    0.76
    Force Sharing ...... 1.8722E+00    0.60     1.8791E+00    0.60
  Misc. 1 .............. 2.2686E+01    7.33     2.2856E+01    7.27
    Scale Masses ....... 2.3502E-02    0.01     2.3034E-02    0.01
    Force Constraints .. 3.8688E-02    0.01     3.9531E-02    0.01
    Force to Accel ..... 2.2191E+00    0.72     2.2260E+00    0.71
    Constraint Sharing . 4.0013E-02    0.01     4.0732E-02    0.01
    Update RB nodes .... 4.9558E-02    0.02     5.1239E-02    0.02
  Misc. 2 .............. 5.1326E+00    1.66     5.1554E+00    1.64
  Misc. 3 .............. 8.0918E+00    2.61     8.2019E+00    2.61
  Misc. 4 .............. 1.3227E+00    0.43     1.3356E+00    0.43
    Timestep Init ...... 9.5245E-01    0.31     9.5226E-01    0.30
    Apply Loads ........ 2.9860E-01    0.10     3.0763E-01    0.10
  ----------------------------------------------------------------
  T o t a l s            3.0946E+02  100.00     3.1423E+02  100.00

 Problem time       =    6.0001E-05
 Problem cycle      =     58329
 Total CPU time     =       309 seconds (   0 hours  5 minutes  9 seconds)
 CPU time per zone cycle  =        447.886 nanoseconds
 Clock time per zone cycle=        454.239 nanoseconds

 Parallel execution with      4 MPP proc
 NLQ used/max                64/    64

  C P U   T i m i n g   i n f o r m a t i o n

  Processor   Hostname                              CPU/Avg_CPU  CPU(seconds)
  ---------------------------------------------------------------------------
  #       0   compute-0-3                               0.97629   3.0219E+02
  #       1   compute-0-3                               1.00779   3.1194E+02
  #       2   compute-0-3                               1.00799   3.1200E+02
  #       3   compute-0-3                               1.00792   3.1198E+02
  ---------------------------------------------------------------------------
  T o t a l s                                                     1.2381E+03


 Start time   04/08/2022 12:08:51  
 End time     04/08/2022 12:14:05  
 Elapsed time     314 seconds for   58329 cycles using     4 MPP procs
             (      0 hour   5 minutes 14 seconds)

 N o r m a l    t e r m i n a t i o n                          04/08/22 12:14:05
