$# LS-DYNA Keyword file created by LS-PrePost(R) V4.8.25 - 04Jan2022
$# Created on May-9-2022 (10:11:30)
*KEYWORD
*TITLE
$#                                                                         title
LS-DYNA keyword deck by LS-PrePost
*CONTROL_ACCURACY
$#     osu       inn    pidosu      iacc    
         1         4         0         0
*CONTROL_BULK_VISCOSITY
$#      q1        q2      type     btype    tstype      
       1.5      0.06        -2         0         0
*CONTROL_CONTACT
$#  slsfac    rwpnal    islchk    shlthk    penopt    thkchg     orien    enmass
       0.2       0.0         1         0         1         0         1         0
$#  usrstr    usrfrc     nsbcs    interm     xpene     ssthk      ecdt   tiedprj
         0         0         0         0       4.0         0         0         0
$#   sfric     dfric       edc       vfc        th     th_sf    pen_sf      
       0.0       0.0       0.0       0.0       0.0       0.0       0.0
$#  ignore    frceng   skiprwg    outseg   spotstp   spotdel   spothin       
         2         1         0         0         0         0       0.0
$#    isym    nserod    rwgaps    rwgdth     rwksf      icov    swradf    ithoff
         0         0         1       0.0       1.0         0       0.0         0
$#  shledg    pstiff    ithcnt    tdcnof     ftall    unused    shltrw    igactc
         0         0         0         0         0                 0.0         0
*CONTROL_DISCRETE_ELEMENT
$#   ndamp     tdamp     frics     fricr     normk    sheark       cap       vtk
       0.0       0.0       0.0       0.0      0.01       0.0         0         0
$#   gamma       vol       ang       gap    unused    ignore      nbuf  parallel

$#   lnorm    lshear    unused     fricd        dc      ncrb        bt        dt
         0         0                 0.0       0.0         0       0.01.00000E20
$#      cp        tc      tfac    
       0.0       0.0       0.0
$# idesoft    sofscl    unused     iskip     
         0       0.1                  20
*CONTROL_ENERGY
$#    hgen      rwen    slnten     rylen     irgen     
         2         1         2         2         1
*CONTROL_HOURGLASS
$#     ihq        qh  
         3       0.1
*CONTROL_OUTPUT
$#   npopt    neecho    nrefup    iaccop     opifs    ipnint    ikedit    iflush
         0         0         0         0       0.0         0       100      5000
$#   iprtf    ierode   tet10s8    msgmax    ipcurv      gmdt   ip1dblt      eocs
         0         1         2        50         0       0.0         0         0
$#   tolev    newleg    frfreq     minfo    solsig    msgflg    cdetol      
         2         0         1         0         0         0      10.0
$# phschng    demden   icrfile   spc2bnd    penout    shlsig   hisnout    engout
         0         0         0         0         0         0         0         0
$#    insf    isolsf      ibsf      issf    mlkbag      
         0         0         0         0         0
*CONTROL_SOLID
$#   esort   fmatrix   niptets    swlocl    psfail   t10jtol    icohed    tet13k
         1         0         4         1         0       0.0         0         0
$#   pm1     pm2     pm3     pm4     pm5     pm6     pm7     pm8     pm9    pm10
       0       0       0       0       0       0       0       0       0       0
*CONTROL_SOLUTION
$#    soln       nlq     isnan     lcint     lcacc     ncdcf     nocop     
         0         0         0       400         1         1         0
*CONTROL_TERMINATION
$#  endtim    endcyc     dtmin    endeng    endmas     nosol     
6.00000E-5         0       0.0       0.01.000000E8         0
*CONTROL_TIMESTEP
$#  dtinit    tssfac      isdo    tslimt     dt2ms      lctm     erode     ms1st
       0.0       0.1         0       0.0       0.0         0         0         0
$#  dt2msf   dt2mslc     imscl    unused    unused     rmscl    unused      ihdo
       0.0         0         0                           0.0                   0
*DATABASE_GLSTAT
$#      dt    binary      lcur     ioopt     
1.00000E-8         0         0         1
*DATABASE_GLSTAT_MASS_PROPERTIES
$#      dt    binary      lcur     ioopt     
1.00000E-8         0         0         1
*DATABASE_MATSUM
$#      dt    binary      lcur     ioopt     
1.00000E-8         0         0         1
*DATABASE_SLEOUT
$#      dt    binary      lcur     ioopt     
1.00000E-8         0         0         1
*DATABASE_BINARY_D3PLOT
$#      dt      lcdt      beam     npltc    psetid      
       0.0         0         0        30         0
$#   ioopt      rate    cutoff    window      type      pset    
         0       0.0       0.0       0.0         0         0
*DATABASE_EXTENT_BINARY
$#   neiph     neips    maxint    strflg    sigflg    epsflg    rltflg    engflg
        20        20         3         0         1         1         1         1
$#  cmpflg    ieverp    beamip     dcomp      shge     stssz    n3thdt   ialemat
         0         0         0         1         1         1         2         1
$# nintsld   pkp_sen      sclp     hydro     msscl     therm    intout    nodout
         0         0       1.0         2         0         0                    
$#    dtdt    resplt     neipb     quadr     cubic     
         0         0         0         0         0
*CONTACT_ERODING_NODES_TO_SURFACE_ID
$#     cid                                                                 title
         3                                                                      
$#    ssid      msid     sstyp     mstyp    sboxid    mboxid       spr       mpr
      5000      4000         4         2         0         0         0         0
$#      fs        fd        dc        vc       vdc    penchk        bt        dt
      0.01      0.01       0.0       0.0       5.0         0       0.01.00000E20
$#     sfs       sfm       sst       mst      sfst      sfmt       fsf       vsf
       1.0       1.0       0.0       0.0       1.0       1.0       1.0       1.0
$#    isym    erosop      iadj    
         1         1         1
$#    soft    sofscl    lcidab    maxpar     sbopt     depth     bsort    frcfrq
         1       0.1         0     1.025       2.0         2         1         1
*CONTACT_ERODING_SINGLE_SURFACE
$#     cid                                                                 title
$#    ssid      msid     sstyp     mstyp    sboxid    mboxid       spr       mpr
         0         0         5         0         0         0         0         2
$#      fs        fd        dc        vc       vdc    penchk        bt        dt
      0.01      0.01       0.0       0.0       5.0         0       0.01.00000E20
$#     sfs       sfm       sst       mst      sfst      sfmt       fsf       vsf
       1.0       1.0       0.0       0.0       1.0       1.0       1.0       1.0
$#    isym    erosop      iadj    
         1         1         1
$#    soft    sofscl    lcidab    maxpar     sbopt     depth     bsort    frcfrq
         2       0.1         0     1.025       5.0        35         1         1
*SECTION_SOLID_TITLE
Ball
$#   secid    elform       aet    unused    unused    unused    cohoff    unused
         2         1         0                                       0          
*MAT_JOHNSON_COOK_TITLE
Steel 4340
$#     mid        ro         g         e        pr       dtf        vp    rateop
         17.85000E-9   80800.0  210000.0       0.3       0.0       1.0       0.0
$#       a         b         n         c         m        tm        tr      epso
     910.0     586.0      0.26     0.014      1.03    1800.0     293.01.00000E-4
$#      cp        pc     spall        it        d1        d2        d3        d4
4.520000E8       0.0       2.0       1.0      -0.8       2.1      -0.5     0.002
$#      d5      c2/p      erod     efmin    numint      
      0.61       0.0         01.00000E-6       1.0
*EOS_LINEAR_POLYNOMIAL_TITLE
Linear Steel 4340
$#   eosid        c0        c1        c2        c3        c4        c5        c6
         1       0.0  175000.0       0.0       0.0       0.0       0.0       0.0
$#      e0        v0  
       0.0       0.0
*SECTION_SOLID_TITLE
Target and particles
$#   secid    elform       aet    unused    unused    unused    cohoff    unused
         1         1         0                                       0          
*MAT_ENHANCED_COMPOSITE_DAMAGE_TITLE
KAY EDIT CHANG 2 with low v -45
$#     mid        ro        ea        eb      (ec)      prba    (prca)    (prcb)
         31.58000E-9  139000.0    9000.0    9000.0      0.25      0.00      0.00
$#     gab       gbc       gca      (kf)      aopt      2way        ti  
    5000.0    4500.0    4500.0       0.0       2.0       0.0       0.0
$#      xp        yp        zp        a1        a2        a3    mangle      
       0.0       0.0       0.0       0.0      -1.0       1.0       0.0
$#      v1        v2        v3        d1        d2        d3    dfailm    dfails
       0.0       0.0       0.0       0.0      -1.0      -1.0     0.025       0.1
$#   tfail      alph      soft      fbrt     ycfac    dfailt    dfailc       efs
5.00000E-4      0.04       1.0       0.0       2.0       0.0      0.03       0.1
$#      xc        xt        yc        yt        sc      crit      beta    
    1656.0    2105.0     175.0      79.0     114.0      54.0       0.9
$#     pel      epsf      epsr      tsmd     soft2     
       0.0       0.0       0.0       0.0       1.0
$#  slimt1    slimc1    slimt2    slimc2     slims    ncyred     softg     
       0.0       0.0       0.0       0.0       0.0       0.0       1.0
*MAT_ENHANCED_COMPOSITE_DAMAGE_TITLE
KAY EDIT CHANG 2 with low v 45
$#     mid        ro        ea        eb      (ec)      prba    (prca)    (prcb)
         21.58000E-9  139000.0    9000.0    9000.0      0.25      0.00      0.00
$#     gab       gbc       gca      (kf)      aopt      2way        ti  
    5000.0    4500.0    4500.0       0.0       2.0       0.0       0.0
$#      xp        yp        zp        a1        a2        a3    mangle      
       0.0       0.0       0.0       0.0       1.0       1.0       0.0
$#      v1        v2        v3        d1        d2        d3    dfailm    dfails
       0.0       0.0       0.0       0.0      -1.0       1.0     0.025       0.1
$#   tfail      alph      soft      fbrt     ycfac    dfailt    dfailc       efs
5.00000E-4      0.04       1.0       0.0       2.0       0.0      0.03       0.1
$#      xc        xt        yc        yt        sc      crit      beta    
    1656.0    2105.0     175.0      79.0     114.0      54.0       0.9
$#     pel      epsf      epsr      tsmd     soft2     
       0.0       0.0       0.0       0.0       1.0
$#  slimt1    slimc1    slimt2    slimc2     slims    ncyred     softg     
       0.0       0.0       0.0       0.0       0.0       0.0       1.0
*MAT_ENHANCED_COMPOSITE_DAMAGE_TITLE
KAY EDIT CHANG 2 with low v 90
$#     mid        ro        ea        eb      (ec)      prba    (prca)    (prcb)
         41.58000E-9  139000.0    9000.0    9000.0      0.25      0.00      0.00
$#     gab       gbc       gca      (kf)      aopt      2way        ti  
    5000.0    4500.0    4500.0       0.0       2.0       0.0       0.0
$#      xp        yp        zp        a1        a2        a3    mangle      
       0.0       0.0       0.0       0.0       1.0       0.0       0.0
$#      v1        v2        v3        d1        d2        d3    dfailm    dfails
       0.0       0.0       0.0       0.0       0.0       1.0     0.025       0.1
$#   tfail      alph      soft      fbrt     ycfac    dfailt    dfailc       efs
5.00000E-4      0.04       1.0       0.0       2.0       0.0      0.03       0.1
$#      xc        xt        yc        yt        sc      crit      beta    
    1656.0    2105.0     175.0      79.0     114.0      54.0       0.9
$#     pel      epsf      epsr      tsmd     soft2     
       0.0       0.0       0.0       0.0       1.0
$#  slimt1    slimc1    slimt2    slimc2     slims    ncyred     softg     
       0.0       0.0       0.0       0.0       0.0       0.0       1.0
*MAT_ENHANCED_COMPOSITE_DAMAGE_TITLE
KAY EDIT CHANG 2 with low v 0
$#     mid        ro        ea        eb      (ec)      prba    (prca)    (prcb)
         51.58000E-9  139000.0    9000.0    9000.0      0.25      0.00      0.00
$#     gab       gbc       gca      (kf)      aopt      2way        ti  
    5000.0    4500.0    4500.0       0.0       2.0       0.0       0.0
$#      xp        yp        zp        a1        a2        a3    mangle      
       0.0       0.0       0.0       0.0       0.0       1.0       0.0
$#      v1        v2        v3        d1        d2        d3    dfailm    dfails
       0.0       0.0       0.0       0.0      -1.0       0.0     0.025       0.1
$#   tfail      alph      soft      fbrt     ycfac    dfailt    dfailc       efs
5.00000E-4      0.04       1.0       0.0       2.0       0.0      0.03       0.1
$#      xc        xt        yc        yt        sc      crit      beta    
    1656.0    2105.0     175.0      79.0     114.0      54.0       0.9
$#     pel      epsf      epsr      tsmd     soft2     
       0.0       0.0       0.0       0.0       1.0
$#  slimt1    slimc1    slimt2    slimc2     slims    ncyred     softg     
       0.0       0.0       0.0       0.0       0.0       0.0       1.0
*INITIAL_VELOCITY_GENERATION
$#      id      styp     omega        vx        vy        vz     ivatn      icid
         1         2       0.0  400000.0       0.0       0.0         0         0
$#      xc        yc        zc        nx        ny        nz     phase    irigid
       0.0       0.0       0.0       0.0       0.0       0.0         0         0
*INCLUDE
$#                                                                      filename
mesh_ply_ball.key
*END
